OMPs000161
     RDKit          3D

 13 13  0  0  0  0  0  0  0  0999 V2000
   -2.5137    0.1022   -0.2222 O   0  0  0  0  0  0  0  0  0  0  0  0
   -1.1532    0.0175   -0.1180 C   0  0  0  0  0  0  0  0  0  0  0  0
   -0.5394   -1.1064   -0.6616 C   0  0  0  0  0  0  0  0  0  0  0  0
    0.8477   -1.2393   -0.5806 C   0  0  0  0  0  0  0  0  0  0  0  0
    1.6055   -0.2462    0.0435 C   0  0  0  0  0  0  0  0  0  0  0  0
    3.3153   -0.4161    0.1400 Cl  0  0  0  0  0  0  0  0  0  0  0  0
    0.9928    0.8813    0.5893 C   0  0  0  0  0  0  0  0  0  0  0  0
   -0.3921    1.0099    0.5062 C   0  0  0  0  0  0  0  0  0  0  0  0
   -1.1575    2.4010    1.1785 Cl  0  0  0  0  0  0  0  0  0  0  0  0
   -2.7867    0.9374    0.2021 H   0  0  0  0  0  0  0  0  0  0  0  0
   -1.1376   -1.8740   -1.1454 H   0  0  0  0  0  0  0  0  0  0  0  0
    1.3299   -2.1166   -1.0047 H   0  0  0  0  0  0  0  0  0  0  0  0
    1.5891    1.6494    1.0731 H   0  0  0  0  0  0  0  0  0  0  0  0
  1  2  1  0
  2  3  2  0
  3  4  1  0
  4  5  2  0
  5  6  1  0
  5  7  1  0
  7  8  2  0
  8  9  1  0
  8  2  1  0
  1 10  1  0
  3 11  1  0
  4 12  1  0
  7 13  1  0
M  END
$$$$
