OMPs000007
     RDKit          3D

 27 28  0  0  0  0  0  0  0  0999 V2000
    3.9149   -1.1371    2.0244 N   0  0  0  0  0  0  0  0  0  0  0  0
    3.0134   -0.3577    1.2899 C   0  0  0  0  0  0  0  0  0  0  0  0
    1.9389    0.2668    1.9321 C   0  0  0  0  0  0  0  0  0  0  0  0
    0.9662    0.9509    1.1980 C   0  0  0  0  0  0  0  0  0  0  0  0
    1.0419    0.9646   -0.1954 C   0  0  0  0  0  0  0  0  0  0  0  0
    2.0819    0.3061   -0.8551 C   0  0  0  0  0  0  0  0  0  0  0  0
    3.0481   -0.3735   -0.1085 C   0  0  0  0  0  0  0  0  0  0  0  0
   -0.1651    1.8543   -1.1463 S   0  0  0  0  0  6  0  0  0  0  0  0
    0.5683    2.5435   -2.1910 O   0  0  0  0  0  0  0  0  0  0  0  0
   -1.0255    2.6027   -0.2542 O   0  0  0  0  0  0  0  0  0  0  0  0
   -1.0302    0.6628   -1.9116 N   0  0  0  0  0  0  0  0  0  0  0  0
   -2.0414    0.0399   -1.1924 C   0  0  0  0  0  0  0  0  0  0  0  0
   -1.8007   -0.3637    0.0556 N   0  0  0  0  0  0  0  0  0  0  0  0
   -2.7725   -1.0977    0.6265 C   0  0  0  0  0  0  0  0  0  0  0  0
   -3.9291   -1.4602   -0.0236 C   0  0  0  0  0  0  0  0  0  0  0  0
   -4.0372   -1.0287   -1.3254 C   0  0  0  0  0  0  0  0  0  0  0  0
   -3.0956   -0.2925   -1.9447 N   0  0  0  0  0  0  0  0  0  0  0  0
    4.0297   -0.8327    2.9861 H   0  0  0  0  0  0  0  0  0  0  0  0
    4.8054   -1.2815    1.5587 H   0  0  0  0  0  0  0  0  0  0  0  0
    1.8510    0.2279    3.0147 H   0  0  0  0  0  0  0  0  0  0  0  0
    0.1479    1.4462    1.7149 H   0  0  0  0  0  0  0  0  0  0  0  0
    2.1400    0.3091   -1.9406 H   0  0  0  0  0  0  0  0  0  0  0  0
    3.8345   -0.9132   -0.6297 H   0  0  0  0  0  0  0  0  0  0  0  0
   -1.2975    0.8955   -2.8602 H   0  0  0  0  0  0  0  0  0  0  0  0
   -2.5837   -1.4009    1.6524 H   0  0  0  0  0  0  0  0  0  0  0  0
   -4.6969   -2.0530    0.4537 H   0  0  0  0  0  0  0  0  0  0  0  0
   -4.9068   -1.2746   -1.9283 H   0  0  0  0  0  0  0  0  0  0  0  0
  1  2  1  0
  2  3  2  0
  3  4  1  0
  4  5  2  0
  5  6  1  0
  6  7  2  0
  5  8  1  0
  8  9  2  0
  8 10  2  0
  8 11  1  0
 11 12  1  0
 12 13  2  0
 13 14  1  0
 14 15  2  0
 15 16  1  0
 16 17  2  0
  7  2  1  0
 17 12  1  0
  1 18  1  0
  1 19  1  0
  3 20  1  0
  4 21  1  0
  6 22  1  0
  7 23  1  0
 11 24  1  0
 14 25  1  0
 15 26  1  0
 16 27  1  0
M  END
$$$$
