OMPs000117
     RDKit          3D

 16 15  0  0  0  0  0  0  0  0999 V2000
    2.8237    0.0059    0.5188 C   0  0  0  0  0  0  0  0  0  0  0  0
    1.4326    0.3057    0.6385 O   0  0  0  0  0  0  0  0  0  0  0  0
    0.6503   -0.3187   -0.2774 C   0  0  0  0  0  0  0  0  0  0  0  0
    1.0535   -1.0790   -1.1468 O   0  0  0  0  0  0  0  0  0  0  0  0
   -0.7958    0.0265   -0.1113 C   0  0  0  0  0  0  0  0  0  0  0  0
   -1.6962   -0.6442   -1.1058 C   0  0  0  0  0  0  0  0  0  0  0  0
   -1.1850    0.8683    0.8618 C   0  0  0  0  0  0  0  0  0  0  0  0
   -2.4618    1.2793    1.1402 O   0  0  0  0  0  0  0  0  0  0  0  0
    3.2034    0.3297   -0.4554 H   0  0  0  0  0  0  0  0  0  0  0  0
    3.3571    0.5568    1.2984 H   0  0  0  0  0  0  0  0  0  0  0  0
    2.9998   -1.0639    0.6686 H   0  0  0  0  0  0  0  0  0  0  0  0
   -1.4167   -0.3586   -2.1258 H   0  0  0  0  0  0  0  0  0  0  0  0
   -2.7501   -0.3861   -0.9768 H   0  0  0  0  0  0  0  0  0  0  0  0
   -1.6175   -1.7331   -1.0171 H   0  0  0  0  0  0  0  0  0  0  0  0
   -0.5065    1.3384    1.5675 H   0  0  0  0  0  0  0  0  0  0  0  0
   -3.0907    0.8731    0.5226 H   0  0  0  0  0  0  0  0  0  0  0  0
  1  2  1  0
  2  3  1  0
  3  4  2  0
  3  5  1  0
  5  6  1  0
  5  7  2  3
  7  8  1  0
  1  9  1  0
  1 10  1  0
  1 11  1  0
  6 12  1  0
  6 13  1  0
  6 14  1  0
  7 15  1  0
  8 16  1  0
M  END
$$$$
