OMPs000075
     RDKit          3D

 24 24  0  0  0  0  0  0  0  0999 V2000
   -3.4986    1.1417    0.4385 C   0  0  0  0  0  0  0  0  0  0  0  0
   -2.4698    0.1893    0.0523 N   0  0  0  0  0  0  0  0  0  0  0  0
   -2.8580   -0.7528   -0.9899 C   0  0  0  0  0  0  0  0  0  0  0  0
   -1.1456    0.5631    0.3012 C   0  0  0  0  0  0  0  0  0  0  0  0
   -0.8608    1.6650    0.7621 O   0  0  0  0  0  0  0  0  0  0  0  0
   -0.2256   -0.4229    0.0190 N   0  0  0  0  0  0  0  0  0  0  0  0
    1.1786   -0.3001    0.0113 C   0  0  0  0  0  0  0  0  0  0  0  0
    1.9259   -1.4835   -0.0158 C   0  0  0  0  0  0  0  0  0  0  0  0
    3.3229   -1.4424   -0.0397 C   0  0  0  0  0  0  0  0  0  0  0  0
    3.9881   -0.2150   -0.0459 C   0  0  0  0  0  0  0  0  0  0  0  0
    5.7150   -0.2373   -0.0786 Cl  0  0  0  0  0  0  0  0  0  0  0  0
    3.2490    0.9717   -0.0318 C   0  0  0  0  0  0  0  0  0  0  0  0
    4.0052    2.5268   -0.0545 Cl  0  0  0  0  0  0  0  0  0  0  0  0
    1.8489    0.9262   -0.0066 C   0  0  0  0  0  0  0  0  0  0  0  0
   -3.6336    1.8660   -0.3705 H   0  0  0  0  0  0  0  0  0  0  0  0
   -3.2168    1.6744    1.3517 H   0  0  0  0  0  0  0  0  0  0  0  0
   -4.4366    0.6092    0.6208 H   0  0  0  0  0  0  0  0  0  0  0  0
   -2.0639   -1.4515   -1.2566 H   0  0  0  0  0  0  0  0  0  0  0  0
   -3.1224   -0.1851   -1.8877 H   0  0  0  0  0  0  0  0  0  0  0  0
   -3.7284   -1.3199   -0.6474 H   0  0  0  0  0  0  0  0  0  0  0  0
   -0.5933   -1.3602    0.0724 H   0  0  0  0  0  0  0  0  0  0  0  0
    1.4342   -2.4535   -0.0132 H   0  0  0  0  0  0  0  0  0  0  0  0
    3.8862   -2.3725   -0.0543 H   0  0  0  0  0  0  0  0  0  0  0  0
    1.2992    1.8633   -0.0109 H   0  0  0  0  0  0  0  0  0  0  0  0
  1  2  1  0
  2  3  1  0
  2  4  1  0
  4  5  2  0
  4  6  1  0
  6  7  1  0
  7  8  2  0
  8  9  1  0
  9 10  2  0
 10 11  1  0
 10 12  1  0
 12 13  1  0
 12 14  2  0
 14  7  1  0
  1 15  1  0
  1 16  1  0
  1 17  1  0
  3 18  1  0
  3 19  1  0
  3 20  1  0
  6 21  1  0
  8 22  1  0
  9 23  1  0
 14 24  1  0
M  END
$$$$
