OMPs000113
     RDKit          3D

 45 46  0  0  0  0  0  0  0  0999 V2000
   -5.5560    2.0758   -0.2570 C   0  0  0  0  0  0  0  0  0  0  0  0
   -5.4349    0.5419   -0.2428 C   0  0  0  0  0  0  0  0  0  0  0  0
   -6.7916   -0.0281   -0.6969 C   0  0  0  0  0  0  0  0  0  0  0  0
   -4.5028    0.1287   -1.2551 O   0  0  0  0  0  0  0  0  0  0  0  0
   -3.2058    0.0252   -0.8407 C   0  0  0  0  0  0  0  0  0  0  0  0
   -2.6955   -1.2406   -0.5616 C   0  0  0  0  0  0  0  0  0  0  0  0
   -1.3614   -1.3860   -0.1779 C   0  0  0  0  0  0  0  0  0  0  0  0
   -0.5249   -0.2656   -0.0932 C   0  0  0  0  0  0  0  0  0  0  0  0
    0.9247   -0.4145    0.2959 C   0  0  0  0  0  0  0  0  0  0  0  0
    1.8267   -0.5664   -0.9317 C   0  0  0  0  0  0  0  0  0  0  0  0
    3.2219   -0.7448   -0.5709 N   0  0  0  0  0  0  0  0  0  0  0  0
    4.0022    0.3287   -0.1921 C   0  0  0  0  0  0  0  0  0  0  0  0
    3.5900    1.4825   -0.1527 O   0  0  0  0  0  0  0  0  0  0  0  0
    5.3999    0.0208    0.2201 C   0  0  0  0  0  0  0  0  0  0  0  0
    6.0327    0.8868    1.1233 C   0  0  0  0  0  0  0  0  0  0  0  0
    7.3456    0.6406    1.5339 C   0  0  0  0  0  0  0  0  0  0  0  0
    8.0298   -0.4660    1.0342 C   0  0  0  0  0  0  0  0  0  0  0  0
    9.6468   -0.7703    1.5368 Cl  0  0  0  0  0  0  0  0  0  0  0  0
    7.4150   -1.3252    0.1231 C   0  0  0  0  0  0  0  0  0  0  0  0
    6.1006   -1.0815   -0.2889 C   0  0  0  0  0  0  0  0  0  0  0  0
   -1.0404    0.9971   -0.4187 C   0  0  0  0  0  0  0  0  0  0  0  0
   -2.3752    1.1403   -0.8021 C   0  0  0  0  0  0  0  0  0  0  0  0
   -5.2005    0.0626    1.2103 C   0  0  0  0  0  0  0  0  0  0  0  0
   -5.2291   -1.2812    1.3539 O   0  0  0  0  0  0  0  0  0  0  0  0
   -5.0111    0.7653    2.1918 O   0  0  0  0  0  0  0  0  0  0  0  0
   -4.6667    2.5529    0.1692 H   0  0  0  0  0  0  0  0  0  0  0  0
   -5.6632    2.4544   -1.2797 H   0  0  0  0  0  0  0  0  0  0  0  0
   -6.4135    2.4171    0.3344 H   0  0  0  0  0  0  0  0  0  0  0  0
   -7.5890    0.2002    0.0184 H   0  0  0  0  0  0  0  0  0  0  0  0
   -6.7403   -1.1183   -0.8139 H   0  0  0  0  0  0  0  0  0  0  0  0
   -7.0770    0.3723   -1.6772 H   0  0  0  0  0  0  0  0  0  0  0  0
   -3.3382   -2.1136   -0.6382 H   0  0  0  0  0  0  0  0  0  0  0  0
   -0.9800   -2.3789    0.0478 H   0  0  0  0  0  0  0  0  0  0  0  0
    1.2300    0.4525    0.8959 H   0  0  0  0  0  0  0  0  0  0  0  0
    1.0428   -1.2831    0.9573 H   0  0  0  0  0  0  0  0  0  0  0  0
    1.7447    0.3131   -1.5821 H   0  0  0  0  0  0  0  0  0  0  0  0
    1.5359   -1.4441   -1.5204 H   0  0  0  0  0  0  0  0  0  0  0  0
    3.5447   -1.6853   -0.3892 H   0  0  0  0  0  0  0  0  0  0  0  0
    5.5024    1.7562    1.5090 H   0  0  0  0  0  0  0  0  0  0  0  0
    7.8261    1.3169    2.2367 H   0  0  0  0  0  0  0  0  0  0  0  0
    7.9571   -2.1785   -0.2774 H   0  0  0  0  0  0  0  0  0  0  0  0
    5.6528   -1.7412   -1.0268 H   0  0  0  0  0  0  0  0  0  0  0  0
   -0.3990    1.8761   -0.3852 H   0  0  0  0  0  0  0  0  0  0  0  0
   -2.7478    2.1199   -1.0831 H   0  0  0  0  0  0  0  0  0  0  0  0
   -5.0284   -1.4147    2.3045 H   0  0  0  0  0  0  0  0  0  0  0  0
  1  2  1  0
  2  3  1  0
  2  4  1  0
  4  5  1  0
  5  6  2  0
  6  7  1  0
  7  8  2  0
  8  9  1  0
  9 10  1  0
 10 11  1  0
 11 12  1  0
 12 13  2  0
 12 14  1  0
 14 15  2  0
 15 16  1  0
 16 17  2  0
 17 18  1  0
 17 19  1  0
 19 20  2  0
  8 21  1  0
 21 22  2  0
  2 23  1  0
 23 24  1  0
 23 25  2  0
 22  5  1  0
 20 14  1  0
  1 26  1  0
  1 27  1  0
  1 28  1  0
  3 29  1  0
  3 30  1  0
  3 31  1  0
  6 32  1  0
  7 33  1  0
  9 34  1  0
  9 35  1  0
 10 36  1  0
 10 37  1  0
 11 38  1  0
 15 39  1  0
 16 40  1  0
 19 41  1  0
 20 42  1  0
 21 43  1  0
 22 44  1  0
 24 45  1  0
M  END
$$$$
