OMPs000112
     RDKit          3D

 25 25  0  0  0  0  0  0  0  0999 V2000
   -1.3542    1.0006   -0.9946 C   0  0  0  0  0  0  0  0  0  0  0  0
   -1.4950   -0.0107    0.1521 C   0  0  0  0  0  0  0  0  0  0  0  0
   -1.6053    0.7130    1.5002 C   0  0  0  0  0  0  0  0  0  0  0  0
   -0.4696   -1.0294    0.1966 O   0  0  0  0  0  0  0  0  0  0  0  0
    0.8199   -0.5998    0.0839 C   0  0  0  0  0  0  0  0  0  0  0  0
    1.4434   -0.6587   -1.1624 C   0  0  0  0  0  0  0  0  0  0  0  0
    2.7804   -0.2781   -1.2893 C   0  0  0  0  0  0  0  0  0  0  0  0
    3.4913    0.1317   -0.1618 C   0  0  0  0  0  0  0  0  0  0  0  0
    5.1397    0.5999   -0.3151 Cl  0  0  0  0  0  0  0  0  0  0  0  0
    2.8799    0.1509    1.0917 C   0  0  0  0  0  0  0  0  0  0  0  0
    1.5422   -0.2301    1.2166 C   0  0  0  0  0  0  0  0  0  0  0  0
   -2.7959   -0.7925   -0.0883 C   0  0  0  0  0  0  0  0  0  0  0  0
   -2.7584   -1.5864   -1.1830 O   0  0  0  0  0  0  0  0  0  0  0  0
   -3.8173   -0.7464    0.5814 O   0  0  0  0  0  0  0  0  0  0  0  0
   -2.2429    1.6374   -1.0720 H   0  0  0  0  0  0  0  0  0  0  0  0
   -1.2212    0.4969   -1.9585 H   0  0  0  0  0  0  0  0  0  0  0  0
   -0.4881    1.6557   -0.8501 H   0  0  0  0  0  0  0  0  0  0  0  0
   -1.6497   -0.0051    2.3272 H   0  0  0  0  0  0  0  0  0  0  0  0
   -2.4999    1.3440    1.5484 H   0  0  0  0  0  0  0  0  0  0  0  0
   -0.7407    1.3597    1.6808 H   0  0  0  0  0  0  0  0  0  0  0  0
    0.8909   -1.0029   -2.0326 H   0  0  0  0  0  0  0  0  0  0  0  0
    3.2616   -0.3132   -2.2627 H   0  0  0  0  0  0  0  0  0  0  0  0
    3.4408    0.4482    1.9736 H   0  0  0  0  0  0  0  0  0  0  0  0
    1.0768   -0.2488    2.1976 H   0  0  0  0  0  0  0  0  0  0  0  0
   -3.6287   -2.0361   -1.1797 H   0  0  0  0  0  0  0  0  0  0  0  0
  1  2  1  0
  2  3  1  0
  2  4  1  0
  4  5  1  0
  5  6  2  0
  6  7  1  0
  7  8  2  0
  8  9  1  0
  8 10  1  0
 10 11  2  0
  2 12  1  0
 12 13  1  0
 12 14  2  0
 11  5  1  0
  1 15  1  0
  1 16  1  0
  1 17  1  0
  3 18  1  0
  3 19  1  0
  3 20  1  0
  6 21  1  0
  7 22  1  0
 10 23  1  0
 11 24  1  0
 13 25  1  0
M  END
$$$$
