OMPs000028
     RDKit          3D

 14 13  0  0  0  0  0  0  0  0999 V2000
   -1.8285   -0.5382    1.1316 O   0  0  0  0  0  0  0  0  0  0  0  0
   -1.3027    0.3803    0.1842 C   0  0  0  0  0  0  0  0  0  0  0  0
    0.0381   -0.0888   -0.3842 C   0  0  0  0  0  0  0  0  0  0  0  0
    0.4894    0.8051   -1.4123 O   0  0  0  0  0  0  0  0  0  0  0  0
    1.1222   -0.1526    0.6959 C   0  0  0  0  0  0  0  0  0  0  0  0
    2.3531   -0.5674    0.0982 O   0  0  0  0  0  0  0  0  0  0  0  0
   -2.0309   -1.3691    0.6673 H   0  0  0  0  0  0  0  0  0  0  0  0
   -1.1944    1.3561    0.6701 H   0  0  0  0  0  0  0  0  0  0  0  0
   -2.0362    0.5126   -0.6189 H   0  0  0  0  0  0  0  0  0  0  0  0
   -0.0631   -1.0814   -0.8383 H   0  0  0  0  0  0  0  0  0  0  0  0
   -0.1615    0.7711   -2.1354 H   0  0  0  0  0  0  0  0  0  0  0  0
    1.2936    0.8317    1.1440 H   0  0  0  0  0  0  0  0  0  0  0  0
    0.8670   -0.8644    1.4859 H   0  0  0  0  0  0  0  0  0  0  0  0
    2.4538    0.0049   -0.6881 H   0  0  0  0  0  0  0  0  0  0  0  0
  1  2  1  0
  2  3  1  0
  3  4  1  0
  3  5  1  0
  5  6  1  0
  1  7  1  0
  2  8  1  0
  2  9  1  0
  3 10  1  0
  4 11  1  0
  5 12  1  0
  5 13  1  0
  6 14  1  0
M  END
$$$$
