OMPs000114
     RDKit          3D

 14 14  0  0  0  0  0  0  0  0999 V2000
    2.9451   -1.0112   -0.2190 O   0  0  0  0  0  0  0  0  0  0  0  0
    2.3417    0.0658   -0.1073 N   0  0  0  0  0  0  0  0  0  0  0  0
    2.8914    1.1753   -0.0485 O   0  0  0  0  0  0  0  0  0  0  0  0
    0.8759    0.0246   -0.0401 C   0  0  0  0  0  0  0  0  0  0  0  0
    0.1529    1.2186    0.0863 C   0  0  0  0  0  0  0  0  0  0  0  0
   -1.2409    1.1731    0.1496 C   0  0  0  0  0  0  0  0  0  0  0  0
   -1.9049   -0.0536    0.0873 C   0  0  0  0  0  0  0  0  0  0  0  0
   -1.1817   -1.2412   -0.0386 C   0  0  0  0  0  0  0  0  0  0  0  0
    0.2124   -1.2083   -0.1030 C   0  0  0  0  0  0  0  0  0  0  0  0
    0.6552    2.1824    0.1362 H   0  0  0  0  0  0  0  0  0  0  0  0
   -1.8112    2.0943    0.2477 H   0  0  0  0  0  0  0  0  0  0  0  0
   -2.9914   -0.0841    0.1371 H   0  0  0  0  0  0  0  0  0  0  0  0
   -1.7059   -2.1931   -0.0866 H   0  0  0  0  0  0  0  0  0  0  0  0
    0.7613   -2.1426   -0.2011 H   0  0  0  0  0  0  0  0  0  0  0  0
  1  2  1  0
  2  3  2  0
  2  4  1  0
  4  5  2  0
  5  6  1  0
  6  7  2  0
  7  8  1  0
  8  9  2  0
  9  4  1  0
  5 10  1  0
  6 11  1  0
  7 12  1  0
  8 13  1  0
  9 14  1  0
M  CHG  2   1  -1   2   1
M  END
$$$$
