OMPs000077
     RDKit          3D

 25 25  0  0  0  0  0  0  0  0999 V2000
    4.0430    1.1709   -0.1222 C   0  0  0  0  0  0  0  0  0  0  0  0
    3.3247    0.1237   -0.7677 O   0  0  0  0  0  0  0  0  0  0  0  0
    2.2472   -0.2726    0.0895 N   0  0  0  0  0  0  0  0  0  0  0  0
    2.3802   -1.7026    0.3018 C   0  0  0  0  0  0  0  0  0  0  0  0
    1.0274    0.2447   -0.4126 C   0  0  0  0  0  0  0  0  0  0  0  0
    0.9668    1.0511   -1.3369 O   0  0  0  0  0  0  0  0  0  0  0  0
   -0.0667   -0.2237    0.3022 N   0  0  0  0  0  0  0  0  0  0  0  0
   -1.4301   -0.0086    0.0226 C   0  0  0  0  0  0  0  0  0  0  0  0
   -1.9008    0.5457   -1.1704 C   0  0  0  0  0  0  0  0  0  0  0  0
   -3.2740    0.7159   -1.3813 C   0  0  0  0  0  0  0  0  0  0  0  0
   -4.1815    0.3262   -0.4009 C   0  0  0  0  0  0  0  0  0  0  0  0
   -5.8688    0.5342   -0.6608 Cl  0  0  0  0  0  0  0  0  0  0  0  0
   -3.7279   -0.2357    0.7890 C   0  0  0  0  0  0  0  0  0  0  0  0
   -2.3555   -0.4049    0.9979 C   0  0  0  0  0  0  0  0  0  0  0  0
    4.8750    1.4641   -0.7680 H   0  0  0  0  0  0  0  0  0  0  0  0
    4.4475    0.8228    0.8334 H   0  0  0  0  0  0  0  0  0  0  0  0
    3.3983    2.0414    0.0343 H   0  0  0  0  0  0  0  0  0  0  0  0
    1.6877   -2.0386    1.0773 H   0  0  0  0  0  0  0  0  0  0  0  0
    2.1547   -2.2317   -0.6295 H   0  0  0  0  0  0  0  0  0  0  0  0
    3.4027   -1.9281    0.6187 H   0  0  0  0  0  0  0  0  0  0  0  0
    0.1529   -0.6066    1.2091 H   0  0  0  0  0  0  0  0  0  0  0  0
   -1.2237    0.8509   -1.9631 H   0  0  0  0  0  0  0  0  0  0  0  0
   -3.6212    1.1517   -2.3145 H   0  0  0  0  0  0  0  0  0  0  0  0
   -4.4335   -0.5436    1.5559 H   0  0  0  0  0  0  0  0  0  0  0  0
   -2.0243   -0.8465    1.9342 H   0  0  0  0  0  0  0  0  0  0  0  0
  1  2  1  0
  2  3  1  0
  3  4  1  0
  3  5  1  0
  5  6  2  0
  5  7  1  0
  7  8  1  0
  8  9  2  0
  9 10  1  0
 10 11  2  0
 11 12  1  0
 11 13  1  0
 13 14  2  0
 14  8  1  0
  1 15  1  0
  1 16  1  0
  1 17  1  0
  4 18  1  0
  4 19  1  0
  4 20  1  0
  7 21  1  0
  9 22  1  0
 10 23  1  0
 13 24  1  0
 14 25  1  0
M  END
$$$$
