OMPs000058
     RDKit          3D

  6  5  0  0  0  0  0  0  0  0999 V2000
    1.7204   -1.1189   -0.7211 Cl  0  0  0  0  0  0  0  0  0  0  0  0
    0.6573    0.1046   -0.0934 C   0  0  0  0  0  0  0  0  0  0  0  0
    1.4262    1.6194    0.2740 Cl  0  0  0  0  0  0  0  0  0  0  0  0
   -0.6573   -0.1046    0.0934 C   0  0  0  0  0  0  0  0  0  0  0  0
   -1.7204    1.1189    0.7211 Cl  0  0  0  0  0  0  0  0  0  0  0  0
   -1.4262   -1.6194   -0.2740 Cl  0  0  0  0  0  0  0  0  0  0  0  0
  1  2  1  0
  2  3  1  0
  2  4  2  3
  4  5  1  0
  4  6  1  0
M  END
$$$$
