OMPs000144
     RDKit          3D

 33 34  0  0  0  0  0  0  0  0999 V2000
    4.5551   -0.6406    0.0946 C   0  0  0  0  0  0  0  0  0  0  0  0
    3.2225   -0.2262   -0.4696 C   0  0  0  0  0  0  0  0  0  0  0  0
    3.1841    0.3295   -1.7566 C   0  0  0  0  0  0  0  0  0  0  0  0
    1.9789    0.7362   -2.3178 C   0  0  0  0  0  0  0  0  0  0  0  0
    0.7947    0.5947   -1.5983 C   0  0  0  0  0  0  0  0  0  0  0  0
    0.7898    0.0348   -0.3129 C   0  0  0  0  0  0  0  0  0  0  0  0
   -0.4084   -0.0986    0.4315 N   0  0  0  0  0  0  0  0  0  0  0  0
   -1.7602   -0.1042    0.0110 C   0  0  0  0  0  0  0  0  0  0  0  0
   -2.1228   -0.7359   -1.1917 C   0  0  0  0  0  0  0  0  0  0  0  0
   -3.4480   -0.7601   -1.6329 C   0  0  0  0  0  0  0  0  0  0  0  0
   -4.4449   -0.1593   -0.8731 C   0  0  0  0  0  0  0  0  0  0  0  0
   -4.1182    0.4569    0.3343 C   0  0  0  0  0  0  0  0  0  0  0  0
   -2.7862    0.4839    0.7866 C   0  0  0  0  0  0  0  0  0  0  0  0
   -2.4598    1.1307    2.0862 C   0  0  0  0  0  0  0  0  0  0  0  0
   -3.5129    1.7438    2.6579 O   0  0  0  0  0  0  0  0  0  0  0  0
   -1.3666    1.1383    2.6262 O   0  0  0  0  0  0  0  0  0  0  0  0
    2.0155   -0.4033    0.2504 C   0  0  0  0  0  0  0  0  0  0  0  0
    2.0331   -1.0109    1.6336 C   0  0  0  0  0  0  0  0  0  0  0  0
    4.6250   -1.7321    0.1354 H   0  0  0  0  0  0  0  0  0  0  0  0
    5.3834   -0.2745   -0.5218 H   0  0  0  0  0  0  0  0  0  0  0  0
    4.6950   -0.2239    1.0972 H   0  0  0  0  0  0  0  0  0  0  0  0
    4.1003    0.4569   -2.3292 H   0  0  0  0  0  0  0  0  0  0  0  0
    1.9612    1.1776   -3.3104 H   0  0  0  0  0  0  0  0  0  0  0  0
   -0.1253    0.9607   -2.0448 H   0  0  0  0  0  0  0  0  0  0  0  0
   -0.2915    0.2930    1.3726 H   0  0  0  0  0  0  0  0  0  0  0  0
   -1.3656   -1.2401   -1.7888 H   0  0  0  0  0  0  0  0  0  0  0  0
   -3.6975   -1.2569   -2.5673 H   0  0  0  0  0  0  0  0  0  0  0  0
   -5.4772   -0.1784   -1.2137 H   0  0  0  0  0  0  0  0  0  0  0  0
   -4.9134    0.9111    0.9210 H   0  0  0  0  0  0  0  0  0  0  0  0
   -3.1481    2.1205    3.4859 H   0  0  0  0  0  0  0  0  0  0  0  0
    2.8636   -1.7112    1.7618 H   0  0  0  0  0  0  0  0  0  0  0  0
    2.1182   -0.2198    2.3850 H   0  0  0  0  0  0  0  0  0  0  0  0
    1.1263   -1.5928    1.8284 H   0  0  0  0  0  0  0  0  0  0  0  0
  1  2  1  0
  2  3  2  0
  3  4  1  0
  4  5  2  0
  5  6  1  0
  6  7  1  0
  7  8  1  0
  8  9  2  0
  9 10  1  0
 10 11  2  0
 11 12  1  0
 12 13  2  0
 13 14  1  0
 14 15  1  0
 14 16  2  0
  6 17  2  0
 17 18  1  0
 17  2  1  0
 13  8  1  0
  1 19  1  0
  1 20  1  0
  1 21  1  0
  3 22  1  0
  4 23  1  0
  5 24  1  0
  7 25  1  0
  9 26  1  0
 10 27  1  0
 11 28  1  0
 12 29  1  0
 15 30  1  0
 18 31  1  0
 18 32  1  0
 18 33  1  0
M  END
$$$$
