OMPs000088
     RDKit          3D

 13 13  0  0  0  0  0  0  0  0999 V2000
   -2.5389   -0.0430   -0.0048 O   0  0  0  0  0  0  0  0  0  0  0  0
   -1.1765   -0.0072   -0.0022 C   0  0  0  0  0  0  0  0  0  0  0  0
   -0.4204   -1.1765   -0.0052 C   0  0  0  0  0  0  0  0  0  0  0  0
    0.9739   -1.0903   -0.0024 C   0  0  0  0  0  0  0  0  0  0  0  0
    1.5928    0.1606    0.0035 C   0  0  0  0  0  0  0  0  0  0  0  0
    3.3105    0.2624    0.0070 Cl  0  0  0  0  0  0  0  0  0  0  0  0
    0.8298    1.3277    0.0066 C   0  0  0  0  0  0  0  0  0  0  0  0
   -0.5632    1.2417    0.0037 C   0  0  0  0  0  0  0  0  0  0  0  0
   -2.8284   -0.9702   -0.0088 H   0  0  0  0  0  0  0  0  0  0  0  0
   -0.8927   -2.1538   -0.0098 H   0  0  0  0  0  0  0  0  0  0  0  0
    1.5712   -1.9981   -0.0048 H   0  0  0  0  0  0  0  0  0  0  0  0
    1.3097    2.3023    0.0111 H   0  0  0  0  0  0  0  0  0  0  0  0
   -1.1678    2.1444    0.0060 H   0  0  0  0  0  0  0  0  0  0  0  0
  1  2  1  0
  2  3  2  0
  3  4  1  0
  4  5  2  0
  5  6  1  0
  5  7  1  0
  7  8  2  0
  8  2  1  0
  1  9  1  0
  3 10  1  0
  4 11  1  0
  7 12  1  0
  8 13  1  0
M  END
$$$$
