OMPs000035
     RDKit          3D

 15 14  0  0  0  0  0  0  0  0999 V2000
    1.6392    0.0454    0.3647 C   0  0  0  0  0  0  0  0  0  0  0  0
    0.6458   -0.0060   -0.7890 C   0  0  0  0  0  0  0  0  0  0  0  0
   -0.8127    0.2233   -0.3779 C   0  0  0  0  0  0  0  0  0  0  0  0
   -1.3435   -0.8336    0.5797 C   0  0  0  0  0  0  0  0  0  0  0  0
   -0.9568    1.4984    0.2409 O   0  0  0  0  0  0  0  0  0  0  0  0
    1.4651   -0.7647    1.0788 H   0  0  0  0  0  0  0  0  0  0  0  0
    1.5816    0.9983    0.8996 H   0  0  0  0  0  0  0  0  0  0  0  0
    2.6598   -0.0637   -0.0165 H   0  0  0  0  0  0  0  0  0  0  0  0
    0.7374   -0.9708   -1.3013 H   0  0  0  0  0  0  0  0  0  0  0  0
    0.9331    0.7702   -1.5091 H   0  0  0  0  0  0  0  0  0  0  0  0
   -1.4376    0.2234   -1.2784 H   0  0  0  0  0  0  0  0  0  0  0  0
   -1.2228   -1.8406    0.1695 H   0  0  0  0  0  0  0  0  0  0  0  0
   -2.4087   -0.6643    0.7733 H   0  0  0  0  0  0  0  0  0  0  0  0
   -0.8451   -0.7824    1.5533 H   0  0  0  0  0  0  0  0  0  0  0  0
   -0.6349    2.1672   -0.3874 H   0  0  0  0  0  0  0  0  0  0  0  0
  1  2  1  0
  2  3  1  0
  3  4  1  0
  3  5  1  0
  1  6  1  0
  1  7  1  0
  1  8  1  0
  2  9  1  0
  2 10  1  0
  3 11  1  0
  4 12  1  0
  4 13  1  0
  4 14  1  0
  5 15  1  0
M  END
$$$$
