OMPs000024
     RDKit          3D

 13 12  0  0  0  0  0  0  0  0999 V2000
    1.7493    0.3319   -0.8567 O   0  0  0  0  0  0  0  0  0  0  0  0
    0.9949    0.7529    0.2717 C   0  0  0  0  0  0  0  0  0  0  0  0
    0.1228   -0.3806    0.7966 C   0  0  0  0  0  0  0  0  0  0  0  0
   -0.9787   -0.8028   -0.1672 C   0  0  0  0  0  0  0  0  0  0  0  0
   -1.9329    0.2371   -0.3342 O   0  0  0  0  0  0  0  0  0  0  0  0
    1.1714    0.3552   -1.6371 H   0  0  0  0  0  0  0  0  0  0  0  0
    1.7081    1.0518    1.0465 H   0  0  0  0  0  0  0  0  0  0  0  0
    0.4088    1.6372    0.0024 H   0  0  0  0  0  0  0  0  0  0  0  0
    0.7539   -1.2530    1.0021 H   0  0  0  0  0  0  0  0  0  0  0  0
   -0.3310   -0.0574    1.7406 H   0  0  0  0  0  0  0  0  0  0  0  0
   -1.5093   -1.6680    0.2431 H   0  0  0  0  0  0  0  0  0  0  0  0
   -0.5854   -1.0901   -1.1474 H   0  0  0  0  0  0  0  0  0  0  0  0
   -1.5719    0.8859   -0.9605 H   0  0  0  0  0  0  0  0  0  0  0  0
  1  2  1  0
  2  3  1  0
  3  4  1  0
  4  5  1  0
  1  6  1  0
  2  7  1  0
  2  8  1  0
  3  9  1  0
  3 10  1  0
  4 11  1  0
  4 12  1  0
  5 13  1  0
M  END
$$$$
