OMPs000138
     RDKit          3D

 44 45  0  0  0  0  0  0  0  0999 V2000
   -0.0095    0.3977    0.0000 O   0  0  0  0  0  0  0  0  0  0  0  0
   -5.5141    0.8308    1.0478 C   0  0  0  0  0  0  0  0  0  0  0  0
   -4.2875   -0.0158    0.8155 C   0  0  0  0  0  0  0  0  0  0  0  0
   -3.5596    0.0119   -0.3242 C   0  0  0  0  0  0  0  0  0  0  0  0
   -2.5186   -0.8422   -0.5322 N   0  0  0  0  0  0  0  0  0  0  0  0
   -2.0843   -1.8766    0.3804 C   0  0  2  0  0  0  0  0  0  0  0  0
   -2.1492   -1.2526    2.0858 S   0  0  0  0  0  0  0  0  0  0  0  0
   -3.9279   -0.8833    2.0018 C   0  0  0  0  0  0  0  0  0  0  0  0
   -0.7019   -1.8334   -0.3387 C   0  0  2  0  0  0  0  0  0  0  0  0
    0.4754   -1.4344    0.4693 N   0  0  0  0  0  0  0  0  0  0  0  0
    1.7548   -1.4509   -0.0536 C   0  0  0  0  0  0  0  0  0  0  0  0
    2.0317   -2.0503   -1.0885 O   0  0  0  0  0  0  0  0  0  0  0  0
    2.7814   -0.6789    0.8187 C   0  0  2  0  0  0  0  0  0  0  0  0
    2.0679    0.2620    1.7279 N   0  0  0  0  0  0  0  0  0  0  0  0
    3.8297    0.0757    0.0238 C   0  0  0  0  0  0  0  0  0  0  0  0
    5.1652    0.0793    0.4591 C   0  0  0  0  0  0  0  0  0  0  0  0
    6.1383    0.8030   -0.2329 C   0  0  0  0  0  0  0  0  0  0  0  0
    5.7892    1.5385   -1.3631 C   0  0  0  0  0  0  0  0  0  0  0  0
    4.4672    1.5530   -1.8019 C   0  0  0  0  0  0  0  0  0  0  0  0
    3.4917    0.8314   -1.1113 C   0  0  0  0  0  0  0  0  0  0  0  0
   -1.3422   -0.6793   -1.1841 C   0  0  0  0  0  0  0  0  0  0  0  0
   -0.9691    0.1409   -1.9898 O   0  0  0  0  0  0  0  0  0  0  0  0
   -3.8604    0.9710   -1.4198 C   0  0  0  0  0  0  0  0  0  0  0  0
   -3.7124    2.2479   -1.0232 O   0  0  0  0  0  0  0  0  0  0  0  0
   -4.1847    0.6762   -2.5558 O   0  0  0  0  0  0  0  0  0  0  0  0
   -0.7585   -0.2170    0.0000 H   0  0  0  0  0  0  0  0  0  0  0  0
    0.7680   -0.1807    0.0000 H   0  0  0  0  0  0  0  0  0  0  0  0
   -5.3014    1.6086    1.7883 H   0  0  0  0  0  0  0  0  0  0  0  0
   -5.8876    1.3149    0.1415 H   0  0  0  0  0  0  0  0  0  0  0  0
   -6.3312    0.2072    1.4273 H   0  0  0  0  0  0  0  0  0  0  0  0
   -2.6206   -2.8210    0.2308 H   0  0  0  0  0  0  0  0  0  0  0  0
   -4.1779   -0.3668    2.9346 H   0  0  0  0  0  0  0  0  0  0  0  0
   -4.5020   -1.8156    1.9731 H   0  0  0  0  0  0  0  0  0  0  0  0
   -0.5022   -2.7343   -0.9315 H   0  0  0  0  0  0  0  0  0  0  0  0
    0.3690   -0.8299    1.2869 H   0  0  0  0  0  0  0  0  0  0  0  0
    3.2639   -1.4443    1.4396 H   0  0  0  0  0  0  0  0  0  0  0  0
    1.7455    1.0473    1.1564 H   0  0  0  0  0  0  0  0  0  0  0  0
    2.7713    0.6737    2.3438 H   0  0  0  0  0  0  0  0  0  0  0  0
    5.4588   -0.4863    1.3409 H   0  0  0  0  0  0  0  0  0  0  0  0
    7.1701    0.7912    0.1088 H   0  0  0  0  0  0  0  0  0  0  0  0
    6.5473    2.0978   -1.9049 H   0  0  0  0  0  0  0  0  0  0  0  0
    4.1934    2.1220   -2.6869 H   0  0  0  0  0  0  0  0  0  0  0  0
    2.4667    0.8552   -1.4794 H   0  0  0  0  0  0  0  0  0  0  0  0
   -3.8438    2.7567   -1.8500 H   0  0  0  0  0  0  0  0  0  0  0  0
  2  3  1  0
  3  4  2  0
  4  5  1  0
  5  6  1  0
  6  7  1  0
  7  8  1  0
  6  9  1  0
  9 10  1  0
 10 11  1  0
 11 12  2  0
 11 13  1  0
 13 14  1  0
 13 15  1  0
 15 16  2  0
 16 17  1  0
 17 18  2  0
 18 19  1  0
 19 20  2  0
  9 21  1  0
 21 22  2  0
  4 23  1  0
 23 24  1  0
 23 25  2  0
  8  3  1  0
 21  5  1  0
 20 15  1  0
  1 26  1  0
  1 27  1  0
  2 28  1  0
  2 29  1  0
  2 30  1  0
  6 31  1  1
  8 32  1  0
  8 33  1  0
  9 34  1  6
 10 35  1  0
 13 36  1  1
 14 37  1  0
 14 38  1  0
 16 39  1  0
 17 40  1  0
 18 41  1  0
 19 42  1  0
 20 43  1  0
 24 44  1  0
M  END
$$$$
