OMPs000102
     RDKit          3D

 35 35  0  0  0  0  0  0  0  0999 V2000
   -2.6039    1.3572   -0.5698 C   0  0  0  0  0  0  0  0  0  0  0  0
   -2.6371    0.2212    0.4657 C   0  0  0  0  0  0  0  0  0  0  0  0
   -3.0196    0.8250    1.8312 C   0  0  0  0  0  0  0  0  0  0  0  0
   -3.7037   -0.8149    0.0751 C   0  0  0  0  0  0  0  0  0  0  0  0
   -1.3057   -0.3875    0.6468 N   0  0  0  0  0  0  0  0  0  0  0  0
   -0.7441   -1.0761   -0.5316 C   0  0  0  0  0  0  0  0  0  0  0  0
    0.6942   -1.6061   -0.2729 C   0  0  0  0  0  0  0  0  0  0  0  0
    0.7138   -2.2817    0.9935 O   0  0  0  0  0  0  0  0  0  0  0  0
    1.8392   -0.6108   -0.2944 C   0  0  0  0  0  0  0  0  0  0  0  0
    3.1563   -1.1084   -0.2523 C   0  0  0  0  0  0  0  0  0  0  0  0
    4.2431   -0.2360   -0.2686 C   0  0  0  0  0  0  0  0  0  0  0  0
    5.5251   -0.7004   -0.2274 O   0  0  0  0  0  0  0  0  0  0  0  0
    4.0551    1.1380   -0.3257 C   0  0  0  0  0  0  0  0  0  0  0  0
    2.7583    1.6348   -0.3591 C   0  0  0  0  0  0  0  0  0  0  0  0
    2.5158    2.9769   -0.4100 O   0  0  0  0  0  0  0  0  0  0  0  0
    1.6579    0.7787   -0.3405 C   0  0  0  0  0  0  0  0  0  0  0  0
   -1.8221    2.0885   -0.3345 H   0  0  0  0  0  0  0  0  0  0  0  0
   -3.5592    1.8950   -0.5901 H   0  0  0  0  0  0  0  0  0  0  0  0
   -2.4253    0.9860   -1.5842 H   0  0  0  0  0  0  0  0  0  0  0  0
   -3.0754    0.0549    2.6101 H   0  0  0  0  0  0  0  0  0  0  0  0
   -2.2893    1.5761    2.1555 H   0  0  0  0  0  0  0  0  0  0  0  0
   -3.9985    1.3166    1.7861 H   0  0  0  0  0  0  0  0  0  0  0  0
   -3.7194   -1.6555    0.7783 H   0  0  0  0  0  0  0  0  0  0  0  0
   -4.7040   -0.3663    0.0772 H   0  0  0  0  0  0  0  0  0  0  0  0
   -3.5342   -1.2174   -0.9294 H   0  0  0  0  0  0  0  0  0  0  0  0
   -1.3549   -1.0761    1.4015 H   0  0  0  0  0  0  0  0  0  0  0  0
   -1.3721   -1.9487   -0.7462 H   0  0  0  0  0  0  0  0  0  0  0  0
   -0.7406   -0.4390   -1.4212 H   0  0  0  0  0  0  0  0  0  0  0  0
    0.8986   -2.3607   -1.0432 H   0  0  0  0  0  0  0  0  0  0  0  0
    0.7874   -1.5677    1.6539 H   0  0  0  0  0  0  0  0  0  0  0  0
    3.3134   -2.1834   -0.2009 H   0  0  0  0  0  0  0  0  0  0  0  0
    5.5005   -1.6696   -0.1624 H   0  0  0  0  0  0  0  0  0  0  0  0
    4.9176    1.7948   -0.3386 H   0  0  0  0  0  0  0  0  0  0  0  0
    3.3681    3.4430   -0.4013 H   0  0  0  0  0  0  0  0  0  0  0  0
    0.6649    1.2198   -0.3546 H   0  0  0  0  0  0  0  0  0  0  0  0
  1  2  1  0
  2  3  1  0
  2  4  1  0
  2  5  1  0
  5  6  1  0
  6  7  1  0
  7  8  1  0
  7  9  1  0
  9 10  2  0
 10 11  1  0
 11 12  1  0
 11 13  2  0
 13 14  1  0
 14 15  1  0
 14 16  2  0
 16  9  1  0
  1 17  1  0
  1 18  1  0
  1 19  1  0
  3 20  1  0
  3 21  1  0
  3 22  1  0
  4 23  1  0
  4 24  1  0
  4 25  1  0
  5 26  1  0
  6 27  1  0
  6 28  1  0
  7 29  1  0
  8 30  1  0
 10 31  1  0
 12 32  1  0
 13 33  1  0
 15 34  1  0
 16 35  1  0
M  END
$$$$
