OMPs000140
     RDKit          3D

 14 15  0  0  0  0  0  0  0  0999 V2000
    2.0473    0.7931   -0.0520 N   0  0  0  0  0  0  0  0  0  0  0  0
    2.7865   -0.3282   -0.0685 N   0  0  0  0  0  0  0  0  0  0  0  0
    1.9477   -1.3572   -0.0460 N   0  0  0  0  0  0  0  0  0  0  0  0
    0.6701   -0.8643   -0.0152 C   0  0  0  0  0  0  0  0  0  0  0  0
   -0.5687   -1.5186    0.0166 C   0  0  0  0  0  0  0  0  0  0  0  0
   -1.7329   -0.7387    0.0441 C   0  0  0  0  0  0  0  0  0  0  0  0
   -1.6623    0.6581    0.0401 C   0  0  0  0  0  0  0  0  0  0  0  0
   -0.4324    1.3271    0.0085 C   0  0  0  0  0  0  0  0  0  0  0  0
    0.7084    0.5235   -0.0184 C   0  0  0  0  0  0  0  0  0  0  0  0
    2.5194    1.6881   -0.0652 H   0  0  0  0  0  0  0  0  0  0  0  0
   -0.6172   -2.6018    0.0196 H   0  0  0  0  0  0  0  0  0  0  0  0
   -2.7037   -1.2291    0.0690 H   0  0  0  0  0  0  0  0  0  0  0  0
   -2.5838    1.2376    0.0620 H   0  0  0  0  0  0  0  0  0  0  0  0
   -0.3785    2.4102    0.0054 H   0  0  0  0  0  0  0  0  0  0  0  0
  1  2  1  0
  2  3  2  0
  3  4  1  0
  4  5  2  0
  5  6  1  0
  6  7  2  0
  7  8  1  0
  8  9  2  0
  9  1  1  0
  9  4  1  0
  1 10  1  0
  5 11  1  0
  6 12  1  0
  7 13  1  0
  8 14  1  0
M  END
$$$$
