OMPs000201
     RDKit          3D

 18 17  0  0  0  0  0  0  0  0999 V2000
   -0.6327   -1.5026   -0.9861 C   0  0  0  0  0  0  0  0  0  0  0  0
   -0.5384   -0.5147    0.0917 N   0  0  0  0  0  0  0  0  0  0  0  0
    0.6472   -0.6787    0.9585 C   0  0  0  0  0  0  0  0  0  0  0  0
    1.8603    0.0921    0.4610 C   0  0  0  0  0  0  0  0  0  0  0  0
    2.2361   -0.2296   -0.7958 O   0  0  0  0  0  0  0  0  0  0  0  0
    2.5198    0.8918    1.1095 O   0  0  0  0  0  0  0  0  0  0  0  0
   -1.0691    0.7262   -0.1373 C   0  0  0  0  0  0  0  0  0  0  0  0
   -1.0243    1.5716    0.9146 N   0  0  0  0  0  0  0  0  0  0  0  0
   -1.5952    1.0829   -1.2558 N   0  0  0  0  0  0  0  0  0  0  0  0
   -0.0025   -1.2228   -1.8364 H   0  0  0  0  0  0  0  0  0  0  0  0
   -0.3273   -2.4957   -0.6395 H   0  0  0  0  0  0  0  0  0  0  0  0
   -1.6679   -1.5949   -1.3334 H   0  0  0  0  0  0  0  0  0  0  0  0
    0.9305   -1.7336    1.0530 H   0  0  0  0  0  0  0  0  0  0  0  0
    0.4188   -0.3390    1.9751 H   0  0  0  0  0  0  0  0  0  0  0  0
    2.9752    0.3842   -0.9851 H   0  0  0  0  0  0  0  0  0  0  0  0
   -1.2312    1.1101    1.7922 H   0  0  0  0  0  0  0  0  0  0  0  0
   -1.5961    2.3997    0.8153 H   0  0  0  0  0  0  0  0  0  0  0  0
   -1.9033    2.0530   -1.2013 H   0  0  0  0  0  0  0  0  0  0  0  0
  1  2  1  0
  2  3  1  0
  3  4  1  0
  4  5  1  0
  4  6  2  0
  2  7  1  0
  7  8  1  0
  7  9  2  3
  1 10  1  0
  1 11  1  0
  1 12  1  0
  3 13  1  0
  3 14  1  0
  5 15  1  0
  8 16  1  0
  8 17  1  0
  9 18  1  0
M  END
$$$$
