OMPs000109
     RDKit          3D

 44 44  0  0  0  0  0  0  0  0999 V2000
    6.6800   -1.4124   -1.0202 C   0  0  0  0  0  0  0  0  0  0  0  0
    5.9192   -0.3402   -0.4804 O   0  0  0  0  0  0  0  0  0  0  0  0
    5.6284   -0.4989    0.9114 C   0  0  0  0  0  0  0  0  0  0  0  0
    4.4157   -1.4031    1.1643 C   0  0  0  0  0  0  0  0  0  0  0  0
    3.0939   -0.7182    0.8972 C   0  0  0  0  0  0  0  0  0  0  0  0
    2.7068   -0.3936   -0.4089 C   0  0  0  0  0  0  0  0  0  0  0  0
    1.4838    0.2392   -0.6594 C   0  0  0  0  0  0  0  0  0  0  0  0
    0.6280    0.5514    0.3952 C   0  0  0  0  0  0  0  0  0  0  0  0
   -0.5886    1.1661    0.2903 O   0  0  0  0  0  0  0  0  0  0  0  0
   -1.0756    1.4211   -1.0333 C   0  0  0  0  0  0  0  0  0  0  0  0
   -2.4832    2.0250   -0.9257 C   0  0  0  0  0  0  0  0  0  0  0  0
   -2.3848    3.3143   -0.2970 O   0  0  0  0  0  0  0  0  0  0  0  0
   -3.4822    1.1655   -0.1192 C   0  0  0  0  0  0  0  0  0  0  0  0
   -3.6314   -0.1997   -0.6422 N   0  0  0  0  0  0  0  0  0  0  0  0
   -4.6901   -0.9526    0.0489 C   0  0  0  0  0  0  0  0  0  0  0  0
   -6.0815   -0.5311   -0.4266 C   0  0  0  0  0  0  0  0  0  0  0  0
   -4.4862   -2.4448   -0.2305 C   0  0  0  0  0  0  0  0  0  0  0  0
    1.0101    0.2318    1.6994 C   0  0  0  0  0  0  0  0  0  0  0  0
    2.2313   -0.3985    1.9518 C   0  0  0  0  0  0  0  0  0  0  0  0
    7.6451   -1.4917   -0.5107 H   0  0  0  0  0  0  0  0  0  0  0  0
    6.1368   -2.3581   -0.9471 H   0  0  0  0  0  0  0  0  0  0  0  0
    6.8638   -1.2019   -2.0773 H   0  0  0  0  0  0  0  0  0  0  0  0
    6.5115   -0.8992    1.4240 H   0  0  0  0  0  0  0  0  0  0  0  0
    5.4459    0.5011    1.3208 H   0  0  0  0  0  0  0  0  0  0  0  0
    4.4595   -2.3128    0.5554 H   0  0  0  0  0  0  0  0  0  0  0  0
    4.4408   -1.7278    2.2119 H   0  0  0  0  0  0  0  0  0  0  0  0
    3.3641   -0.6232   -1.2458 H   0  0  0  0  0  0  0  0  0  0  0  0
    1.2402    0.4787   -1.6889 H   0  0  0  0  0  0  0  0  0  0  0  0
   -0.4143    2.1473   -1.5215 H   0  0  0  0  0  0  0  0  0  0  0  0
   -1.1093    0.4939   -1.6166 H   0  0  0  0  0  0  0  0  0  0  0  0
   -2.8773    2.1927   -1.9344 H   0  0  0  0  0  0  0  0  0  0  0  0
   -1.8332    3.1874    0.4984 H   0  0  0  0  0  0  0  0  0  0  0  0
   -4.4420    1.6948   -0.1311 H   0  0  0  0  0  0  0  0  0  0  0  0
   -3.1735    1.1325    0.9337 H   0  0  0  0  0  0  0  0  0  0  0  0
   -2.7455   -0.6887   -0.4984 H   0  0  0  0  0  0  0  0  0  0  0  0
   -4.6132   -0.8050    1.1334 H   0  0  0  0  0  0  0  0  0  0  0  0
   -6.3057    0.5066   -0.1619 H   0  0  0  0  0  0  0  0  0  0  0  0
   -6.8525   -1.1560    0.0377 H   0  0  0  0  0  0  0  0  0  0  0  0
   -6.1803   -0.6327   -1.5133 H   0  0  0  0  0  0  0  0  0  0  0  0
   -5.2514   -3.0415    0.2779 H   0  0  0  0  0  0  0  0  0  0  0  0
   -4.5445   -2.6656   -1.3024 H   0  0  0  0  0  0  0  0  0  0  0  0
   -3.5097   -2.7840    0.1331 H   0  0  0  0  0  0  0  0  0  0  0  0
    0.3515    0.4750    2.5294 H   0  0  0  0  0  0  0  0  0  0  0  0
    2.4999   -0.6342    2.9787 H   0  0  0  0  0  0  0  0  0  0  0  0
  1  2  1  0
  2  3  1  0
  3  4  1  0
  4  5  1  0
  5  6  2  0
  6  7  1  0
  7  8  2  0
  8  9  1  0
  9 10  1  0
 10 11  1  0
 11 12  1  0
 11 13  1  0
 13 14  1  0
 14 15  1  0
 15 16  1  0
 15 17  1  0
  8 18  1  0
 18 19  2  0
 19  5  1  0
  1 20  1  0
  1 21  1  0
  1 22  1  0
  3 23  1  0
  3 24  1  0
  4 25  1  0
  4 26  1  0
  6 27  1  0
  7 28  1  0
 10 29  1  0
 10 30  1  0
 11 31  1  0
 12 32  1  0
 13 33  1  0
 13 34  1  0
 14 35  1  0
 15 36  1  0
 16 37  1  0
 16 38  1  0
 16 39  1  0
 17 40  1  0
 17 41  1  0
 17 42  1  0
 18 43  1  0
 19 44  1  0
M  END
$$$$
