OMPs000111
     RDKit          3D

 33 34  0  0  0  0  0  0  0  0999 V2000
   -2.8056    2.7095   -1.6478 C   0  0  0  0  0  0  0  0  0  0  0  0
   -3.1343    1.4287   -0.8764 C   0  0  0  0  0  0  0  0  0  0  0  0
   -3.5648    0.3228   -1.8292 C   0  0  0  0  0  0  0  0  0  0  0  0
   -4.6403    0.6684   -2.5705 O   0  0  0  0  0  0  0  0  0  0  0  0
   -3.0843   -0.7919   -1.9547 O   0  0  0  0  0  0  0  0  0  0  0  0
   -1.9858    1.0064    0.0301 C   0  0  0  0  0  0  0  0  0  0  0  0
   -2.2194    0.7733    1.3951 C   0  0  0  0  0  0  0  0  0  0  0  0
   -1.1792    0.3887    2.2442 C   0  0  0  0  0  0  0  0  0  0  0  0
    0.1100    0.2197    1.7412 C   0  0  0  0  0  0  0  0  0  0  0  0
    0.3547    0.4233    0.3800 C   0  0  0  0  0  0  0  0  0  0  0  0
   -0.6845    0.8277   -0.4672 C   0  0  0  0  0  0  0  0  0  0  0  0
    1.7136    0.2664   -0.1942 C   0  0  0  0  0  0  0  0  0  0  0  0
    2.0953    1.0594   -1.0512 O   0  0  0  0  0  0  0  0  0  0  0  0
    2.6197   -0.8233    0.2497 C   0  0  0  0  0  0  0  0  0  0  0  0
    3.9984   -0.5822    0.2592 C   0  0  0  0  0  0  0  0  0  0  0  0
    4.8816   -1.5854    0.6608 C   0  0  0  0  0  0  0  0  0  0  0  0
    4.3911   -2.8344    1.0410 C   0  0  0  0  0  0  0  0  0  0  0  0
    3.0190   -3.0856    1.0129 C   0  0  0  0  0  0  0  0  0  0  0  0
    2.1314   -2.0845    0.6124 C   0  0  0  0  0  0  0  0  0  0  0  0
   -2.0366    2.5412   -2.4096 H   0  0  0  0  0  0  0  0  0  0  0  0
   -2.4516    3.4981   -0.9743 H   0  0  0  0  0  0  0  0  0  0  0  0
   -3.6916    3.0898   -2.1674 H   0  0  0  0  0  0  0  0  0  0  0  0
   -4.0055    1.6363   -0.2407 H   0  0  0  0  0  0  0  0  0  0  0  0
   -4.8105   -0.1275   -3.1175 H   0  0  0  0  0  0  0  0  0  0  0  0
   -3.2169    0.8969    1.8130 H   0  0  0  0  0  0  0  0  0  0  0  0
   -1.3750    0.2253    3.3015 H   0  0  0  0  0  0  0  0  0  0  0  0
    0.9125   -0.0568    2.4202 H   0  0  0  0  0  0  0  0  0  0  0  0
   -0.4692    0.9875   -1.5222 H   0  0  0  0  0  0  0  0  0  0  0  0
    4.3858    0.3874   -0.0478 H   0  0  0  0  0  0  0  0  0  0  0  0
    5.9517   -1.3931    0.6698 H   0  0  0  0  0  0  0  0  0  0  0  0
    5.0805   -3.6171    1.3482 H   0  0  0  0  0  0  0  0  0  0  0  0
    2.6412   -4.0659    1.2932 H   0  0  0  0  0  0  0  0  0  0  0  0
    1.0686   -2.3092    0.5689 H   0  0  0  0  0  0  0  0  0  0  0  0
  1  2  1  0
  2  3  1  0
  3  4  1  0
  3  5  2  0
  2  6  1  0
  6  7  2  0
  7  8  1  0
  8  9  2  0
  9 10  1  0
 10 11  2  0
 10 12  1  0
 12 13  2  0
 12 14  1  0
 14 15  2  0
 15 16  1  0
 16 17  2  0
 17 18  1  0
 18 19  2  0
 11  6  1  0
 19 14  1  0
  1 20  1  0
  1 21  1  0
  1 22  1  0
  2 23  1  0
  4 24  1  0
  7 25  1  0
  8 26  1  0
  9 27  1  0
 11 28  1  0
 15 29  1  0
 16 30  1  0
 17 31  1  0
 18 32  1  0
 19 33  1  0
M  END
$$$$
