OMPs000221
     RDKit          3D

 40 41  0  0  0  0  0  0  0  0999 V2000
    0.2369    1.8321   -2.3374 C   0  0  0  0  0  0  0  0  0  0  0  0
    0.1356    1.8086   -0.8173 C   0  0  0  0  0  0  0  0  0  0  0  0
    0.4571    0.4455   -0.2281 C   0  0  0  0  0  0  0  0  0  0  0  0
    1.9026    0.2048   -0.0388 C   0  0  0  0  0  0  0  0  0  0  0  0
    2.6421   -0.4814   -1.0107 C   0  0  0  0  0  0  0  0  0  0  0  0
    4.0061   -0.7102   -0.8236 C   0  0  0  0  0  0  0  0  0  0  0  0
    4.6279   -0.2554    0.3334 C   0  0  0  0  0  0  0  0  0  0  0  0
    5.9615   -0.5014    0.4755 O   0  0  0  0  0  0  0  0  0  0  0  0
    3.9090    0.4262    1.3106 C   0  0  0  0  0  0  0  0  0  0  0  0
    2.5439    0.6556    1.1228 C   0  0  0  0  0  0  0  0  0  0  0  0
   -0.4539   -0.4824    0.1575 C   0  0  0  0  0  0  0  0  0  0  0  0
   -0.1323   -1.8471    0.7431 C   0  0  0  0  0  0  0  0  0  0  0  0
   -0.2326   -1.8736    2.2632 C   0  0  0  0  0  0  0  0  0  0  0  0
   -1.8993   -0.2426   -0.0337 C   0  0  0  0  0  0  0  0  0  0  0  0
   -2.5382   -0.6928   -1.1958 C   0  0  0  0  0  0  0  0  0  0  0  0
   -3.9023   -0.4626   -1.3813 C   0  0  0  0  0  0  0  0  0  0  0  0
   -4.6246    0.2165   -0.4070 C   0  0  0  0  0  0  0  0  0  0  0  0
   -5.9545    0.4194   -0.6293 O   0  0  0  0  0  0  0  0  0  0  0  0
   -4.0064    0.6726    0.7533 C   0  0  0  0  0  0  0  0  0  0  0  0
   -2.6410    0.4426    0.9383 C   0  0  0  0  0  0  0  0  0  0  0  0
    1.2593    1.6360   -2.6751 H   0  0  0  0  0  0  0  0  0  0  0  0
   -0.0539    2.8172   -2.7166 H   0  0  0  0  0  0  0  0  0  0  0  0
   -0.4232    1.0875   -2.7935 H   0  0  0  0  0  0  0  0  0  0  0  0
   -0.8684    2.1386   -0.5304 H   0  0  0  0  0  0  0  0  0  0  0  0
    0.8104    2.5673   -0.4001 H   0  0  0  0  0  0  0  0  0  0  0  0
    2.1584   -0.8420   -1.9151 H   0  0  0  0  0  0  0  0  0  0  0  0
    4.5798   -1.2421   -1.5769 H   0  0  0  0  0  0  0  0  0  0  0  0
    6.2563   -0.1288    1.3223 H   0  0  0  0  0  0  0  0  0  0  0  0
    4.3870    0.7827    2.2171 H   0  0  0  0  0  0  0  0  0  0  0  0
    1.9792    1.1847    1.8867 H   0  0  0  0  0  0  0  0  0  0  0  0
   -0.8076   -2.6047    0.3249 H   0  0  0  0  0  0  0  0  0  0  0  0
    0.8713   -2.1769    0.4549 H   0  0  0  0  0  0  0  0  0  0  0  0
    0.0573   -2.8598    2.6403 H   0  0  0  0  0  0  0  0  0  0  0  0
   -1.2546   -1.6770    2.6019 H   0  0  0  0  0  0  0  0  0  0  0  0
    0.4286   -1.1306    2.7204 H   0  0  0  0  0  0  0  0  0  0  0  0
   -1.9762   -1.2211   -1.9618 H   0  0  0  0  0  0  0  0  0  0  0  0
   -4.3981   -0.8111   -2.2825 H   0  0  0  0  0  0  0  0  0  0  0  0
   -6.3251    0.9000    0.1287 H   0  0  0  0  0  0  0  0  0  0  0  0
   -4.5631    1.2048    1.5176 H   0  0  0  0  0  0  0  0  0  0  0  0
   -2.1547    0.8012    1.8423 H   0  0  0  0  0  0  0  0  0  0  0  0
  1  2  1  0
  2  3  1  0
  3  4  1  0
  4  5  2  0
  5  6  1  0
  6  7  2  0
  7  8  1  0
  7  9  1  0
  9 10  2  0
  3 11  2  0
 11 12  1  0
 12 13  1  0
 11 14  1  0
 14 15  2  0
 15 16  1  0
 16 17  2  0
 17 18  1  0
 17 19  1  0
 19 20  2  0
 10  4  1  0
 20 14  1  0
  1 21  1  0
  1 22  1  0
  1 23  1  0
  2 24  1  0
  2 25  1  0
  5 26  1  0
  6 27  1  0
  8 28  1  0
  9 29  1  0
 10 30  1  0
 12 31  1  0
 12 32  1  0
 13 33  1  0
 13 34  1  0
 13 35  1  0
 15 36  1  0
 16 37  1  0
 18 38  1  0
 19 39  1  0
 20 40  1  0
M  END
$$$$
