OMPs000176
     RDKit          3D

 14 13  0  0  0  0  0  0  0  0999 V2000
    0.0239    1.7233    0.0313 N   0  0  0  0  0  0  0  0  0  0  0  0
   -0.0798    0.2754    0.3241 C   0  0  1  0  0  0  0  0  0  0  0  0
   -1.0270   -0.4441   -0.6472 C   0  0  0  0  0  0  0  0  0  0  0  0
   -1.5032   -1.6683   -0.0840 O   0  0  0  0  0  0  0  0  0  0  0  0
    1.3188   -0.3444    0.3163 C   0  0  0  0  0  0  0  0  0  0  0  0
    1.8128   -0.6223   -0.9056 O   0  0  0  0  0  0  0  0  0  0  0  0
    2.0210   -0.4981    1.3071 O   0  0  0  0  0  0  0  0  0  0  0  0
    0.6582    2.1472    0.7108 H   0  0  0  0  0  0  0  0  0  0  0  0
   -0.8829    2.1642    0.1754 H   0  0  0  0  0  0  0  0  0  0  0  0
   -0.4650    0.1543    1.3444 H   0  0  0  0  0  0  0  0  0  0  0  0
   -0.5544   -0.6742   -1.6068 H   0  0  0  0  0  0  0  0  0  0  0  0
   -1.9096    0.1707   -0.8582 H   0  0  0  0  0  0  0  0  0  0  0  0
   -2.1347   -1.4449    0.6216 H   0  0  0  0  0  0  0  0  0  0  0  0
    2.7221   -0.9388   -0.7292 H   0  0  0  0  0  0  0  0  0  0  0  0
  1  2  1  0
  2  3  1  0
  3  4  1  0
  2  5  1  0
  5  6  1  0
  5  7  2  0
  1  8  1  0
  1  9  1  0
  2 10  1  1
  3 11  1  0
  3 12  1  0
  4 13  1  0
  6 14  1  0
M  END
$$$$
