OMPs000014
     RDKit          3D

 14 13  0  0  0  0  0  0  0  0999 V2000
    1.4587    0.1188    0.9811 C   0  0  0  0  0  0  0  0  0  0  0  0
    0.7077   -0.8855    0.1178 C   0  0  0  0  0  0  0  0  0  0  0  0
   -0.2158   -0.2141   -0.8965 C   0  0  0  0  0  0  0  0  0  0  0  0
   -1.4380    0.3969   -0.2638 C   0  0  0  0  0  0  0  0  0  0  0  0
   -2.1013    1.1957   -1.1234 O   0  0  0  0  0  0  0  0  0  0  0  0
   -1.8583    0.2216    0.8664 O   0  0  0  0  0  0  0  0  0  0  0  0
    0.7732    0.7249    1.5809 H   0  0  0  0  0  0  0  0  0  0  0  0
    2.0618    0.7921    0.3637 H   0  0  0  0  0  0  0  0  0  0  0  0
    2.1324   -0.4045    1.6671 H   0  0  0  0  0  0  0  0  0  0  0  0
    1.4419   -1.4936   -0.4237 H   0  0  0  0  0  0  0  0  0  0  0  0
    0.1401   -1.5664    0.7626 H   0  0  0  0  0  0  0  0  0  0  0  0
   -0.5634   -0.9635   -1.6165 H   0  0  0  0  0  0  0  0  0  0  0  0
    0.3311    0.5641   -1.4404 H   0  0  0  0  0  0  0  0  0  0  0  0
   -2.8701    1.5136   -0.6050 H   0  0  0  0  0  0  0  0  0  0  0  0
  1  2  1  0
  2  3  1  0
  3  4  1  0
  4  5  1  0
  4  6  2  0
  1  7  1  0
  1  8  1  0
  1  9  1  0
  2 10  1  0
  2 11  1  0
  3 12  1  0
  3 13  1  0
  5 14  1  0
M  END
$$$$
