OMPs000084
     RDKit          3D

 30 31  0  0  0  0  0  0  0  0999 V2000
   -2.4182    3.7761    0.6633 O   0  0  0  0  0  0  0  0  0  0  0  0
   -1.9153    2.6375    0.1381 C   0  0  0  0  0  0  0  0  0  0  0  0
   -1.2809    2.6791   -0.9044 O   0  0  0  0  0  0  0  0  0  0  0  0
   -2.1976    1.4383    1.0099 C   0  0  0  0  0  0  0  0  0  0  0  0
   -2.0566    0.1058    0.3029 C   0  0  0  0  0  0  0  0  0  0  0  0
   -3.1986   -0.6933    0.1156 C   0  0  0  0  0  0  0  0  0  0  0  0
   -3.1038   -1.9381   -0.5049 C   0  0  0  0  0  0  0  0  0  0  0  0
   -1.8694   -2.3989   -0.9491 C   0  0  0  0  0  0  0  0  0  0  0  0
   -0.7278   -1.6160   -0.7722 C   0  0  0  0  0  0  0  0  0  0  0  0
   -0.8009   -0.3678   -0.1348 C   0  0  0  0  0  0  0  0  0  0  0  0
    0.3405    0.4753   -0.0136 N   0  0  0  0  0  0  0  0  0  0  0  0
    1.7012    0.0514   -0.0543 C   0  0  0  0  0  0  0  0  0  0  0  0
    2.2359   -0.8682    0.8716 C   0  0  0  0  0  0  0  0  0  0  0  0
    1.3099   -1.4894    2.1973 Cl  0  0  0  0  0  0  0  0  0  0  0  0
    3.5718   -1.2827    0.7853 C   0  0  0  0  0  0  0  0  0  0  0  0
    4.4018   -0.7855   -0.2173 C   0  0  0  0  0  0  0  0  0  0  0  0
    3.9006    0.1353   -1.1330 C   0  0  0  0  0  0  0  0  0  0  0  0
    2.5674    0.5501   -1.0497 C   0  0  0  0  0  0  0  0  0  0  0  0
    2.0049    1.6932   -2.2218 Cl  0  0  0  0  0  0  0  0  0  0  0  0
   -2.1482    4.4693    0.0247 H   0  0  0  0  0  0  0  0  0  0  0  0
   -3.2195    1.5384    1.3960 H   0  0  0  0  0  0  0  0  0  0  0  0
   -1.5215    1.4657    1.8724 H   0  0  0  0  0  0  0  0  0  0  0  0
   -4.1735   -0.3520    0.4572 H   0  0  0  0  0  0  0  0  0  0  0  0
   -3.9935   -2.5469   -0.6426 H   0  0  0  0  0  0  0  0  0  0  0  0
   -1.7926   -3.3653   -1.4399 H   0  0  0  0  0  0  0  0  0  0  0  0
    0.2196   -1.9903   -1.1494 H   0  0  0  0  0  0  0  0  0  0  0  0
    0.2036    1.2495   -0.6804 H   0  0  0  0  0  0  0  0  0  0  0  0
    3.9722   -1.9896    1.5088 H   0  0  0  0  0  0  0  0  0  0  0  0
    5.4382   -1.1090   -0.2784 H   0  0  0  0  0  0  0  0  0  0  0  0
    4.5505    0.5280   -1.9114 H   0  0  0  0  0  0  0  0  0  0  0  0
  1  2  1  0
  2  3  2  0
  2  4  1  0
  4  5  1  0
  5  6  2  0
  6  7  1  0
  7  8  2  0
  8  9  1  0
  9 10  2  0
 10 11  1  0
 11 12  1  0
 12 13  2  0
 13 14  1  0
 13 15  1  0
 15 16  2  0
 16 17  1  0
 17 18  2  0
 18 19  1  0
 10  5  1  0
 18 12  1  0
  1 20  1  0
  4 21  1  0
  4 22  1  0
  6 23  1  0
  7 24  1  0
  8 25  1  0
  9 26  1  0
 11 27  1  0
 15 28  1  0
 16 29  1  0
 17 30  1  0
M  END
$$$$
