OMPs000223
     RDKit          3D

 17 17  0  0  0  0  0  0  0  0999 V2000
   -2.7931   -0.8592    1.2316 O   0  0  0  0  0  0  0  0  0  0  0  0
   -2.3401   -0.0127    0.2835 C   0  0  0  0  0  0  0  0  0  0  0  0
   -3.1183    0.6950   -0.3256 O   0  0  0  0  0  0  0  0  0  0  0  0
   -0.8630   -0.0975    0.1361 C   0  0  0  0  0  0  0  0  0  0  0  0
   -0.1913   -1.2761    0.5007 C   0  0  0  0  0  0  0  0  0  0  0  0
    1.1921   -1.3790    0.3424 C   0  0  0  0  0  0  0  0  0  0  0  0
    1.9061   -0.3077   -0.1796 C   0  0  0  0  0  0  0  0  0  0  0  0
    3.2547   -0.4559   -0.3148 O   0  0  0  0  0  0  0  0  0  0  0  0
    1.2629    0.8713   -0.5465 C   0  0  0  0  0  0  0  0  0  0  0  0
   -0.1233    0.9732   -0.3865 C   0  0  0  0  0  0  0  0  0  0  0  0
   -0.7434    2.1440   -0.7230 O   0  0  0  0  0  0  0  0  0  0  0  0
   -3.7583   -0.6878    1.2370 H   0  0  0  0  0  0  0  0  0  0  0  0
   -0.7402   -2.1242    0.9035 H   0  0  0  0  0  0  0  0  0  0  0  0
    1.7084   -2.2928    0.6246 H   0  0  0  0  0  0  0  0  0  0  0  0
    3.6318    0.3596   -0.6835 H   0  0  0  0  0  0  0  0  0  0  0  0
    1.8327    1.7035   -0.9447 H   0  0  0  0  0  0  0  0  0  0  0  0
   -0.1175    2.7462   -1.1551 H   0  0  0  0  0  0  0  0  0  0  0  0
  1  2  1  0
  2  3  2  0
  2  4  1  0
  4  5  2  0
  5  6  1  0
  6  7  2  0
  7  8  1  0
  7  9  1  0
  9 10  2  0
 10 11  1  0
 10  4  1  0
  1 12  1  0
  5 13  1  0
  6 14  1  0
  8 15  1  0
  9 16  1  0
 11 17  1  0
M  END
$$$$
