OMPs000057
     RDKit          3D

  5  4  0  0  0  0  0  0  0  0999 V2000
   -0.6902    1.5515   -0.3738 Cl  0  0  0  0  0  0  0  0  0  0  0  0
    0.0008   -0.0047    0.1157 C   0  0  0  0  0  0  0  0  0  0  0  0
   -0.9886   -1.3437   -0.4902 Cl  0  0  0  0  0  0  0  0  0  0  0  0
    1.6698   -0.1537   -0.4595 Cl  0  0  0  0  0  0  0  0  0  0  0  0
    0.0082   -0.0494    1.2078 H   0  0  0  0  0  0  0  0  0  0  0  0
  1  2  1  0
  2  3  1  0
  2  4  1  0
  2  5  1  0
M  END
$$$$
