OMPs000092
     RDKit          3D

 42 45  0  0  0  0  0  0  0  0999 V2000
   -5.2461    3.2915   -0.8450 O   0  0  0  0  0  0  0  0  0  0  0  0
   -5.1812    1.9895   -0.5319 C   0  0  0  0  0  0  0  0  0  0  0  0
   -6.1819    1.2910   -0.5519 O   0  0  0  0  0  0  0  0  0  0  0  0
   -3.8181    1.5220   -0.2573 C   0  0  0  0  0  0  0  0  0  0  0  0
   -3.5406    0.2333   -0.5078 C   0  0  0  0  0  0  0  0  0  0  0  0
   -2.3174   -0.3868   -0.3264 N   0  0  0  0  0  0  0  0  0  0  0  0
   -2.1910   -1.8042   -0.7162 C   0  0  0  0  0  0  0  0  0  0  0  0
   -3.1797   -2.8537   -0.2659 C   0  0  0  0  0  0  0  0  0  0  0  0
   -1.7871   -2.8642    0.2796 C   0  0  0  0  0  0  0  0  0  0  0  0
   -1.1838    0.4051    0.0177 C   0  0  0  0  0  0  0  0  0  0  0  0
    0.1242   -0.1186    0.0607 C   0  0  0  0  0  0  0  0  0  0  0  0
    1.2440    0.6627    0.4071 C   0  0  0  0  0  0  0  0  0  0  0  0
    2.5474    0.1368    0.4652 N   0  0  0  0  0  0  0  0  0  0  0  0
    3.5204    0.8225   -0.4223 C   0  0  0  0  0  0  0  0  0  0  0  0
    4.9665    0.4026   -0.0700 C   0  0  0  0  0  0  0  0  0  0  0  0
    5.1777   -1.0584   -0.0818 N   0  0  0  0  0  0  0  0  0  0  0  0
    4.1944   -1.6900    0.8179 C   0  0  0  0  0  0  0  0  0  0  0  0
    2.7319   -1.3293    0.4706 C   0  0  0  0  0  0  0  0  0  0  0  0
    0.9941    2.0118    0.7340 C   0  0  0  0  0  0  0  0  0  0  0  0
    2.0007    2.8099    1.1266 F   0  0  0  0  0  0  0  0  0  0  0  0
   -0.2811    2.5644    0.6952 C   0  0  0  0  0  0  0  0  0  0  0  0
   -1.3636    1.7642    0.3305 C   0  0  0  0  0  0  0  0  0  0  0  0
   -2.7226    2.3625    0.2796 C   0  0  0  0  0  0  0  0  0  0  0  0
   -2.9011    3.5033    0.6916 O   0  0  0  0  0  0  0  0  0  0  0  0
   -6.1972    3.4735   -0.9841 H   0  0  0  0  0  0  0  0  0  0  0  0
   -4.3124   -0.4287   -0.8961 H   0  0  0  0  0  0  0  0  0  0  0  0
   -1.8110   -1.9091   -1.7305 H   0  0  0  0  0  0  0  0  0  0  0  0
   -3.9764   -2.5715    0.4126 H   0  0  0  0  0  0  0  0  0  0  0  0
   -3.4555   -3.6244   -0.9760 H   0  0  0  0  0  0  0  0  0  0  0  0
   -1.1154   -3.6450   -0.0562 H   0  0  0  0  0  0  0  0  0  0  0  0
   -1.6513   -2.5731    1.3149 H   0  0  0  0  0  0  0  0  0  0  0  0
    0.2715   -1.1589   -0.2047 H   0  0  0  0  0  0  0  0  0  0  0  0
    3.4636    1.9123   -0.3403 H   0  0  0  0  0  0  0  0  0  0  0  0
    3.3061    0.5609   -1.4671 H   0  0  0  0  0  0  0  0  0  0  0  0
    5.6551    0.8595   -0.7891 H   0  0  0  0  0  0  0  0  0  0  0  0
    5.2278    0.7957    0.9207 H   0  0  0  0  0  0  0  0  0  0  0  0
    6.1164   -1.2567    0.2626 H   0  0  0  0  0  0  0  0  0  0  0  0
    4.4088   -1.3948    1.8529 H   0  0  0  0  0  0  0  0  0  0  0  0
    4.3165   -2.7771    0.7611 H   0  0  0  0  0  0  0  0  0  0  0  0
    2.4810   -1.7487   -0.5122 H   0  0  0  0  0  0  0  0  0  0  0  0
    2.0824   -1.7922    1.2236 H   0  0  0  0  0  0  0  0  0  0  0  0
   -0.4158    3.6102    0.9561 H   0  0  0  0  0  0  0  0  0  0  0  0
  1  2  1  0
  2  3  2  0
  2  4  1  0
  4  5  2  0
  5  6  1  0
  6  7  1  0
  7  8  1  0
  8  9  1  0
  6 10  1  0
 10 11  2  0
 11 12  1  0
 12 13  1  0
 13 14  1  0
 14 15  1  0
 15 16  1  0
 16 17  1  0
 17 18  1  0
 12 19  2  0
 19 20  1  0
 19 21  1  0
 21 22  2  0
 22 23  1  0
 23 24  2  0
 23  4  1  0
  9  7  1  0
 22 10  1  0
 18 13  1  0
  1 25  1  0
  5 26  1  0
  7 27  1  0
  8 28  1  0
  8 29  1  0
  9 30  1  0
  9 31  1  0
 11 32  1  0
 14 33  1  0
 14 34  1  0
 15 35  1  0
 15 36  1  0
 16 37  1  0
 17 38  1  0
 17 39  1  0
 18 40  1  0
 18 41  1  0
 21 42  1  0
M  END
$$$$
