OMPs000218
     RDKit          3D

 44 47  0  0  0  0  0  0  0  0999 V2000
   -2.2019   -1.7915   -0.7867 C   0  0  0  0  0  0  0  0  0  0  0  0
   -2.3031   -0.2716   -0.4943 C   0  0  2  0  0  0  0  0  0  0  0  0
   -1.7611    0.5183   -1.6934 C   0  0  0  0  0  0  0  0  0  0  0  0
   -0.2378    0.3484   -1.8547 C   0  0  0  0  0  0  0  0  0  0  0  0
    0.5590    0.6474   -0.5570 C   0  0  1  0  0  0  0  0  0  0  0  0
   -0.0335   -0.1264    0.6593 C   0  0  1  0  0  0  0  0  0  0  0  0
    0.7357    0.2692    1.9215 C   0  0  0  0  0  0  0  0  0  0  0  0
    2.1836   -0.1999    1.8143 C   0  0  0  0  0  0  0  0  0  0  0  0
    2.8252    0.0828    0.4766 C   0  0  0  0  0  0  0  0  0  0  0  0
    4.2203   -0.0707    0.3739 C   0  0  0  0  0  0  0  0  0  0  0  0
    4.8618    0.1582   -0.8368 C   0  0  0  0  0  0  0  0  0  0  0  0
    6.2119    0.0222   -0.9657 O   0  0  0  0  0  0  0  0  0  0  0  0
    4.1391    0.5394   -1.9544 C   0  0  0  0  0  0  0  0  0  0  0  0
    2.7534    0.6864   -1.8660 C   0  0  0  0  0  0  0  0  0  0  0  0
    2.0686    0.4409   -0.6620 C   0  0  0  0  0  0  0  0  0  0  0  0
   -1.5282    0.1851    0.7597 C   0  0  2  0  0  0  0  0  0  0  0  0
   -2.3310   -0.4079    1.9121 C   0  0  0  0  0  0  0  0  0  0  0  0
   -3.7953   -0.3329    1.4367 C   0  0  0  0  0  0  0  0  0  0  0  0
   -3.7549    0.0308   -0.0632 C   0  0  1  0  0  0  0  0  0  0  0  0
   -4.0979    1.4024   -0.2339 O   0  0  0  0  0  0  0  0  0  0  0  0
   -2.8094   -2.0473   -1.6631 H   0  0  0  0  0  0  0  0  0  0  0  0
   -2.5666   -2.4048    0.0432 H   0  0  0  0  0  0  0  0  0  0  0  0
   -1.1814   -2.1191   -1.0002 H   0  0  0  0  0  0  0  0  0  0  0  0
   -2.2653    0.2093   -2.6169 H   0  0  0  0  0  0  0  0  0  0  0  0
   -1.9685    1.5889   -1.5719 H   0  0  0  0  0  0  0  0  0  0  0  0
    0.0760    1.0275   -2.6559 H   0  0  0  0  0  0  0  0  0  0  0  0
   -0.0077   -0.6639   -2.2079 H   0  0  0  0  0  0  0  0  0  0  0  0
    0.4333    1.7233   -0.3593 H   0  0  0  0  0  0  0  0  0  0  0  0
    0.1070   -1.2052    0.5134 H   0  0  0  0  0  0  0  0  0  0  0  0
    0.2865   -0.1750    2.8167 H   0  0  0  0  0  0  0  0  0  0  0  0
    0.7044    1.3582    2.0555 H   0  0  0  0  0  0  0  0  0  0  0  0
    2.2209   -1.2840    1.9815 H   0  0  0  0  0  0  0  0  0  0  0  0
    2.7655    0.2761    2.6129 H   0  0  0  0  0  0  0  0  0  0  0  0
    4.7903   -0.3677    1.2496 H   0  0  0  0  0  0  0  0  0  0  0  0
    6.5776   -0.2464   -0.1074 H   0  0  0  0  0  0  0  0  0  0  0  0
    4.6497    0.7271   -2.8945 H   0  0  0  0  0  0  0  0  0  0  0  0
    2.2250    1.0047   -2.7601 H   0  0  0  0  0  0  0  0  0  0  0  0
   -1.6143    1.2790    0.8562 H   0  0  0  0  0  0  0  0  0  0  0  0
   -2.1895    0.1538    2.8412 H   0  0  0  0  0  0  0  0  0  0  0  0
   -2.0448   -1.4470    2.1094 H   0  0  0  0  0  0  0  0  0  0  0  0
   -4.2699   -1.3094    1.5851 H   0  0  0  0  0  0  0  0  0  0  0  0
   -4.3563    0.4055    2.0197 H   0  0  0  0  0  0  0  0  0  0  0  0
   -4.4896   -0.5500   -0.6301 H   0  0  0  0  0  0  0  0  0  0  0  0
   -3.5871    1.9360    0.3967 H   0  0  0  0  0  0  0  0  0  0  0  0
  2  1  1  6
  2  3  1  0
  3  4  1  0
  4  5  1  0
  5  6  1  0
  6  7  1  0
  7  8  1  0
  8  9  1  0
  9 10  2  0
 10 11  1  0
 11 12  1  0
 11 13  2  0
 13 14  1  0
 14 15  2  0
  6 16  1  0
 16 17  1  0
 17 18  1  0
 18 19  1  0
 19 20  1  0
 16  2  1  0
 19  2  1  0
 15  5  1  0
 15  9  1  0
  1 21  1  0
  1 22  1  0
  1 23  1  0
  3 24  1  0
  3 25  1  0
  4 26  1  0
  4 27  1  0
  5 28  1  1
  6 29  1  6
  7 30  1  0
  7 31  1  0
  8 32  1  0
  8 33  1  0
 10 34  1  0
 12 35  1  0
 13 36  1  0
 14 37  1  0
 16 38  1  1
 17 39  1  0
 17 40  1  0
 18 41  1  0
 18 42  1  0
 19 43  1  6
 20 44  1  0
M  END
$$$$
