OMPs000135
     RDKit          3D

 32 32  0  0  0  0  0  0  0  0999 V2000
   -3.4768   -2.1878   -0.6451 O   0  0  0  0  0  0  0  0  0  0  0  0
   -2.2235   -2.1297   -1.3291 C   0  0  0  0  0  0  0  0  0  0  0  0
   -1.1939   -1.2417   -0.5950 C   0  0  0  0  0  0  0  0  0  0  0  0
   -1.7563    0.0862   -0.3077 N   0  0  0  0  0  0  0  0  0  0  0  0
   -2.5772    0.3053    0.7866 C   0  0  0  0  0  0  0  0  0  0  0  0
   -2.7966   -0.5818    1.6141 O   0  0  0  0  0  0  0  0  0  0  0  0
   -3.1468    1.7169    0.9320 C   0  0  0  0  0  0  0  0  0  0  0  0
   -1.8532    2.7889    1.5093 Cl  0  0  0  0  0  0  0  0  0  0  0  0
   -3.7668    2.2887   -0.6357 Cl  0  0  0  0  0  0  0  0  0  0  0  0
    0.1260   -1.1479   -1.4067 C   0  0  0  0  0  0  0  0  0  0  0  0
    0.6573   -2.4512   -1.6486 O   0  0  0  0  0  0  0  0  0  0  0  0
    1.1884   -0.3022   -0.7229 C   0  0  0  0  0  0  0  0  0  0  0  0
    1.7423   -0.6989    0.5067 C   0  0  0  0  0  0  0  0  0  0  0  0
    2.7063    0.0870    1.1431 C   0  0  0  0  0  0  0  0  0  0  0  0
    3.1257    1.2811    0.5458 C   0  0  0  0  0  0  0  0  0  0  0  0
    2.5894    1.6883   -0.6820 C   0  0  0  0  0  0  0  0  0  0  0  0
    1.6254    0.8957   -1.3115 C   0  0  0  0  0  0  0  0  0  0  0  0
    4.1390    2.1113    1.2090 N   0  0  0  0  0  0  0  0  0  0  0  0
    4.5960    1.7111    2.2891 O   0  0  0  0  0  0  0  0  0  0  0  0
    4.4817    3.1611    0.6463 O   0  0  0  0  0  0  0  0  0  0  0  0
   -3.2964   -2.1331    0.3156 H   0  0  0  0  0  0  0  0  0  0  0  0
   -1.8534   -3.1547   -1.4295 H   0  0  0  0  0  0  0  0  0  0  0  0
   -2.4232   -1.7396   -2.3326 H   0  0  0  0  0  0  0  0  0  0  0  0
   -0.9927   -1.7237    0.3707 H   0  0  0  0  0  0  0  0  0  0  0  0
   -1.8281    0.7538   -1.0695 H   0  0  0  0  0  0  0  0  0  0  0  0
   -3.9688    1.7170    1.6529 H   0  0  0  0  0  0  0  0  0  0  0  0
   -0.0945   -0.7154   -2.3908 H   0  0  0  0  0  0  0  0  0  0  0  0
    1.6139   -2.3580   -1.8054 H   0  0  0  0  0  0  0  0  0  0  0  0
    1.4204   -1.6261    0.9804 H   0  0  0  0  0  0  0  0  0  0  0  0
    3.1134   -0.2426    2.0972 H   0  0  0  0  0  0  0  0  0  0  0  0
    2.9073    2.6146   -1.1571 H   0  0  0  0  0  0  0  0  0  0  0  0
    1.2160    1.2271   -2.2645 H   0  0  0  0  0  0  0  0  0  0  0  0
  1  2  1  0
  2  3  1  0
  3  4  1  0
  4  5  1  0
  5  6  2  0
  5  7  1  0
  7  8  1  0
  7  9  1  0
  3 10  1  0
 10 11  1  0
 10 12  1  0
 12 13  2  0
 13 14  1  0
 14 15  2  0
 15 16  1  0
 16 17  2  0
 15 18  1  0
 18 19  1  0
 18 20  2  0
 17 12  1  0
  1 21  1  0
  2 22  1  0
  2 23  1  0
  3 24  1  0
  4 25  1  0
  7 26  1  0
 10 27  1  0
 11 28  1  0
 13 29  1  0
 14 30  1  0
 16 31  1  0
 17 32  1  0
M  CHG  2  18   1  19  -1
M  END
$$$$
