OMPs000093
     RDKit          3D

 57 60  0  0  0  0  0  0  0  0999 V2000
   -3.6578   -2.4967    0.3677 C   0  0  0  0  0  0  0  0  0  0  0  0
   -3.0175   -1.3019   -0.3338 C   0  0  2  0  0  0  0  0  0  0  0  0
   -1.6397   -1.6708   -0.9637 C   0  0  0  0  0  0  0  0  0  0  0  0
   -0.6596   -0.8167   -0.1786 C   0  0  1  0  0  0  0  0  0  0  0  0
    0.7549   -0.5253   -0.6532 C   0  0  2  0  0  0  0  0  0  0  0  0
    1.4725   -1.6745   -1.3558 C   0  0  0  0  0  0  0  0  0  0  0  0
    2.8328   -1.1866   -1.8610 C   0  0  0  0  0  0  0  0  0  0  0  0
    3.6542   -0.5742   -0.7458 C   0  0  0  0  0  0  0  0  0  0  0  0
    4.8759   -1.0793   -0.4910 C   0  0  0  0  0  0  0  0  0  0  0  0
    5.7002   -0.6188    0.6417 C   0  0  0  0  0  0  0  0  0  0  0  0
    6.8154   -1.0791    0.8488 O   0  0  0  0  0  0  0  0  0  0  0  0
    5.1239    0.4195    1.5109 C   0  0  0  0  0  0  0  0  0  0  0  0
    3.9096    0.9302    1.2677 C   0  0  0  0  0  0  0  0  0  0  0  0
    2.9860    0.5400    0.1106 C   0  0  1  0  0  0  0  0  0  0  0  0
    2.8310    1.8214   -0.7380 C   0  0  0  0  0  0  0  0  0  0  0  0
    1.5827   -0.0196    0.5852 C   0  0  2  0  0  0  0  0  0  0  0  0
    1.8858   -1.1633    1.3264 F   0  0  0  0  0  0  0  0  0  0  0  0
    0.6611    0.7956    1.5732 C   0  0  1  0  0  0  0  0  0  0  0  0
    1.3350    1.7969    2.3303 O   0  0  0  0  0  0  0  0  0  0  0  0
   -0.5844    1.4509    0.9538 C   0  0  0  0  0  0  0  0  0  0  0  0
   -1.4273    0.5211    0.0445 C   0  0  1  0  0  0  0  0  0  0  0  0
   -1.7130    1.3140   -1.2645 C   0  0  0  0  0  0  0  0  0  0  0  0
   -2.7530   -0.0744    0.6084 C   0  0  2  0  0  0  0  0  0  0  0  0
   -2.5046   -0.5426    1.9474 O   0  0  0  0  0  0  0  0  0  0  0  0
   -3.9044    0.9419    0.7409 C   0  0  0  0  0  0  0  0  0  0  0  0
   -3.9529    1.6951    1.7250 O   0  0  0  0  0  0  0  0  0  0  0  0
   -4.9947    1.0018   -0.3194 C   0  0  0  0  0  0  0  0  0  0  0  0
   -5.8348    2.1347   -0.1407 O   0  0  0  0  0  0  0  0  0  0  0  0
   -4.5947   -2.2073    0.8547 H   0  0  0  0  0  0  0  0  0  0  0  0
   -2.9941   -2.9282    1.1227 H   0  0  0  0  0  0  0  0  0  0  0  0
   -3.8864   -3.2848   -0.3572 H   0  0  0  0  0  0  0  0  0  0  0  0
   -3.6739   -1.0252   -1.1652 H   0  0  0  0  0  0  0  0  0  0  0  0
   -1.4081   -2.7379   -0.8762 H   0  0  0  0  0  0  0  0  0  0  0  0
   -1.6253   -1.4206   -2.0302 H   0  0  0  0  0  0  0  0  0  0  0  0
   -0.5498   -1.3567    0.7753 H   0  0  0  0  0  0  0  0  0  0  0  0
    0.6944    0.2779   -1.3915 H   0  0  0  0  0  0  0  0  0  0  0  0
    0.8846   -2.0266   -2.2122 H   0  0  0  0  0  0  0  0  0  0  0  0
    1.5981   -2.5286   -0.6781 H   0  0  0  0  0  0  0  0  0  0  0  0
    2.6928   -0.4424   -2.6544 H   0  0  0  0  0  0  0  0  0  0  0  0
    3.3551   -2.0317   -2.3256 H   0  0  0  0  0  0  0  0  0  0  0  0
    5.3176   -1.8758   -1.0797 H   0  0  0  0  0  0  0  0  0  0  0  0
    5.7455    0.7601    2.3305 H   0  0  0  0  0  0  0  0  0  0  0  0
    3.5910    1.7434    1.9141 H   0  0  0  0  0  0  0  0  0  0  0  0
    3.8092    2.2151   -1.0423 H   0  0  0  0  0  0  0  0  0  0  0  0
    2.3235    2.6126   -0.1749 H   0  0  0  0  0  0  0  0  0  0  0  0
    2.2631    1.6638   -1.6587 H   0  0  0  0  0  0  0  0  0  0  0  0
    0.2855    0.0824    2.3210 H   0  0  0  0  0  0  0  0  0  0  0  0
    1.7332    1.3423    3.0967 H   0  0  0  0  0  0  0  0  0  0  0  0
   -0.2379    2.3291    0.3913 H   0  0  0  0  0  0  0  0  0  0  0  0
   -1.2060    1.8783    1.7503 H   0  0  0  0  0  0  0  0  0  0  0  0
   -0.7953    1.6609   -1.7496 H   0  0  0  0  0  0  0  0  0  0  0  0
   -2.3002    2.2143   -1.0471 H   0  0  0  0  0  0  0  0  0  0  0  0
   -2.2667    0.7368   -2.0094 H   0  0  0  0  0  0  0  0  0  0  0  0
   -2.6218    0.2272    2.5424 H   0  0  0  0  0  0  0  0  0  0  0  0
   -5.6125    0.1035   -0.2460 H   0  0  0  0  0  0  0  0  0  0  0  0
   -4.5547    1.0753   -1.3157 H   0  0  0  0  0  0  0  0  0  0  0  0
   -5.7438    2.4037    0.7990 H   0  0  0  0  0  0  0  0  0  0  0  0
  1  2  1  0
  2  3  1  0
  3  4  1  0
  4  5  1  0
  5  6  1  0
  6  7  1  0
  7  8  1  0
  8  9  2  0
  9 10  1  0
 10 11  2  0
 10 12  1  0
 12 13  2  0
 13 14  1  0
 14 15  1  6
 14 16  1  0
 16 17  1  1
 16 18  1  0
 18 19  1  0
 18 20  1  0
 20 21  1  0
 21 22  1  6
 21 23  1  0
 23 24  1  1
 23 25  1  0
 25 26  2  0
 25 27  1  0
 27 28  1  0
 23  2  1  0
 21  4  1  0
 16  5  1  0
 14  8  1  0
  1 29  1  0
  1 30  1  0
  1 31  1  0
  2 32  1  6
  3 33  1  0
  3 34  1  0
  4 35  1  1
  5 36  1  6
  6 37  1  0
  6 38  1  0
  7 39  1  0
  7 40  1  0
  9 41  1  0
 12 42  1  0
 13 43  1  0
 15 44  1  0
 15 45  1  0
 15 46  1  0
 18 47  1  1
 19 48  1  0
 20 49  1  0
 20 50  1  0
 22 51  1  0
 22 52  1  0
 22 53  1  0
 24 54  1  0
 27 55  1  0
 27 56  1  0
 28 57  1  0
M  END
$$$$
