OMPs000017
     RDKit          3D

 25 25  0  0  0  0  0  0  0  0999 V2000
   -2.7236    0.3970   -1.0610 C   0  0  0  0  0  0  0  0  0  0  0  0
   -1.9755    0.2051    0.2615 C   0  0  0  0  0  0  0  0  0  0  0  0
   -2.5185   -1.0081    1.0228 C   0  0  0  0  0  0  0  0  0  0  0  0
   -0.4745    0.1008    0.0407 C   0  0  0  0  0  0  0  0  0  0  0  0
    0.0692   -0.9578   -0.7062 C   0  0  0  0  0  0  0  0  0  0  0  0
    1.4475   -1.0619   -0.9149 C   0  0  0  0  0  0  0  0  0  0  0  0
    2.3201   -0.1143   -0.3733 C   0  0  0  0  0  0  0  0  0  0  0  0
    3.7955   -0.2076   -0.6258 C   0  0  0  0  0  0  0  0  0  0  0  0
    1.7901    0.9537    0.3589 C   0  0  0  0  0  0  0  0  0  0  0  0
    0.4107    1.0520    0.5641 C   0  0  0  0  0  0  0  0  0  0  0  0
   -0.0877    2.1001    1.2879 O   0  0  0  0  0  0  0  0  0  0  0  0
   -3.7927    0.5514   -0.8791 H   0  0  0  0  0  0  0  0  0  0  0  0
   -2.3456    1.2726   -1.6005 H   0  0  0  0  0  0  0  0  0  0  0  0
   -2.6218   -0.4716   -1.7207 H   0  0  0  0  0  0  0  0  0  0  0  0
   -2.1959    1.0846    0.8781 H   0  0  0  0  0  0  0  0  0  0  0  0
   -3.5826   -0.8759    1.2472 H   0  0  0  0  0  0  0  0  0  0  0  0
   -1.9898   -1.1419    1.9731 H   0  0  0  0  0  0  0  0  0  0  0  0
   -2.4143   -1.9351    0.4486 H   0  0  0  0  0  0  0  0  0  0  0  0
   -0.5806   -1.7155   -1.1385 H   0  0  0  0  0  0  0  0  0  0  0  0
    1.8326   -1.8910   -1.5044 H   0  0  0  0  0  0  0  0  0  0  0  0
    4.3622    0.2130    0.2116 H   0  0  0  0  0  0  0  0  0  0  0  0
    4.0541    0.3382   -1.5383 H   0  0  0  0  0  0  0  0  0  0  0  0
    4.1081   -1.2512   -0.7369 H   0  0  0  0  0  0  0  0  0  0  0  0
    2.4615    1.7044    0.7658 H   0  0  0  0  0  0  0  0  0  0  0  0
    0.6511    2.6589    1.5773 H   0  0  0  0  0  0  0  0  0  0  0  0
  1  2  1  0
  2  3  1  0
  2  4  1  0
  4  5  2  0
  5  6  1  0
  6  7  2  0
  7  8  1  0
  7  9  1  0
  9 10  2  0
 10 11  1  0
 10  4  1  0
  1 12  1  0
  1 13  1  0
  1 14  1  0
  2 15  1  0
  3 16  1  0
  3 17  1  0
  3 18  1  0
  5 19  1  0
  6 20  1  0
  8 21  1  0
  8 22  1  0
  8 23  1  0
  9 24  1  0
 11 25  1  0
M  END
$$$$
