OMPs000076
     RDKit          3D

 25 25  0  0  0  0  0  0  0  0999 V2000
    3.8515    0.5825    1.5244 C   0  0  0  0  0  0  0  0  0  0  0  0
    3.2989    0.7725    0.2252 O   0  0  0  0  0  0  0  0  0  0  0  0
    2.2650   -0.2006    0.0334 N   0  0  0  0  0  0  0  0  0  0  0  0
    2.5861   -0.9239   -1.1837 C   0  0  0  0  0  0  0  0  0  0  0  0
    0.9985    0.4226    0.1572 C   0  0  0  0  0  0  0  0  0  0  0  0
    0.8513    1.5780    0.5465 O   0  0  0  0  0  0  0  0  0  0  0  0
   -0.0382   -0.4461   -0.1557 N   0  0  0  0  0  0  0  0  0  0  0  0
   -1.4114   -0.1463   -0.2469 C   0  0  0  0  0  0  0  0  0  0  0  0
   -2.2966   -1.2253   -0.3752 C   0  0  0  0  0  0  0  0  0  0  0  0
   -3.6739   -1.0095   -0.4838 C   0  0  0  0  0  0  0  0  0  0  0  0
   -4.1711    0.2905   -0.4699 C   0  0  0  0  0  0  0  0  0  0  0  0
   -6.0315    0.5872   -0.6171 Br  0  0  0  0  0  0  0  0  0  0  0  0
   -3.3032    1.3721   -0.3519 C   0  0  0  0  0  0  0  0  0  0  0  0
   -1.9252    1.1527   -0.2436 C   0  0  0  0  0  0  0  0  0  0  0  0
    4.6512    1.3142    1.6668 H   0  0  0  0  0  0  0  0  0  0  0  0
    4.2762   -0.4223    1.6146 H   0  0  0  0  0  0  0  0  0  0  0  0
    3.0904    0.7421    2.2945 H   0  0  0  0  0  0  0  0  0  0  0  0
    1.9274   -1.7881   -1.2984 H   0  0  0  0  0  0  0  0  0  0  0  0
    2.4569   -0.2618   -2.0459 H   0  0  0  0  0  0  0  0  0  0  0  0
    3.6219   -1.2725   -1.1353 H   0  0  0  0  0  0  0  0  0  0  0  0
    0.2095   -1.4236   -0.1413 H   0  0  0  0  0  0  0  0  0  0  0  0
   -1.9299   -2.2483   -0.3889 H   0  0  0  0  0  0  0  0  0  0  0  0
   -4.3453   -1.8587   -0.5781 H   0  0  0  0  0  0  0  0  0  0  0  0
   -3.6809    2.3913   -0.3440 H   0  0  0  0  0  0  0  0  0  0  0  0
   -1.2775    2.0211   -0.1647 H   0  0  0  0  0  0  0  0  0  0  0  0
  1  2  1  0
  2  3  1  0
  3  4  1  0
  3  5  1  0
  5  6  2  0
  5  7  1  0
  7  8  1  0
  8  9  2  0
  9 10  1  0
 10 11  2  0
 11 12  1  0
 11 13  1  0
 13 14  2  0
 14  8  1  0
  1 15  1  0
  1 16  1  0
  1 17  1  0
  4 18  1  0
  4 19  1  0
  4 20  1  0
  7 21  1  0
  9 22  1  0
 10 23  1  0
 13 24  1  0
 14 25  1  0
M  END
$$$$
