OMPs000106
     RDKit          3D

 35 35  0  0  0  0  0  0  0  0999 V2000
   -3.7906   -0.1162   -0.2681 C   0  0  0  0  0  0  0  0  0  0  0  0
   -2.5738   -0.1597    0.6698 C   0  0  0  0  0  0  0  0  0  0  0  0
   -2.9219    0.6207    1.9522 C   0  0  0  0  0  0  0  0  0  0  0  0
   -2.2584   -1.6145    1.0554 C   0  0  0  0  0  0  0  0  0  0  0  0
   -1.3985    0.5193    0.0879 N   0  0  0  0  0  0  0  0  0  0  0  0
   -0.9171   -0.0202   -1.1993 C   0  0  0  0  0  0  0  0  0  0  0  0
    0.3029    0.7968   -1.7070 C   0  0  0  0  0  0  0  0  0  0  0  0
    0.0119    2.1944   -1.5999 O   0  0  0  0  0  0  0  0  0  0  0  0
    1.5904    0.4659   -0.9765 C   0  0  0  0  0  0  0  0  0  0  0  0
    2.1014    1.2849    0.0404 C   0  0  0  0  0  0  0  0  0  0  0  0
    3.2795    0.9411    0.7140 C   0  0  0  0  0  0  0  0  0  0  0  0
    3.8336    1.9938    1.9726 Cl  0  0  0  0  0  0  0  0  0  0  0  0
    4.0083   -0.2122    0.3736 C   0  0  0  0  0  0  0  0  0  0  0  0
    5.1174   -0.6261    1.1462 N   0  0  0  0  0  0  0  0  0  0  0  0
    3.4664   -1.0473   -0.6190 C   0  0  0  0  0  0  0  0  0  0  0  0
    4.2576   -2.5234   -1.0597 Cl  0  0  0  0  0  0  0  0  0  0  0  0
    2.2878   -0.7085   -1.2951 C   0  0  0  0  0  0  0  0  0  0  0  0
   -4.0008    0.9070   -0.6005 H   0  0  0  0  0  0  0  0  0  0  0  0
   -3.6459   -0.7386   -1.1576 H   0  0  0  0  0  0  0  0  0  0  0  0
   -4.6889   -0.4875    0.2391 H   0  0  0  0  0  0  0  0  0  0  0  0
   -2.0920    0.6081    2.6689 H   0  0  0  0  0  0  0  0  0  0  0  0
   -3.7947    0.1871    2.4544 H   0  0  0  0  0  0  0  0  0  0  0  0
   -3.1566    1.6689    1.7311 H   0  0  0  0  0  0  0  0  0  0  0  0
   -3.0932   -2.0619    1.6076 H   0  0  0  0  0  0  0  0  0  0  0  0
   -2.0814   -2.2427    0.1762 H   0  0  0  0  0  0  0  0  0  0  0  0
   -1.3715   -1.6744    1.6968 H   0  0  0  0  0  0  0  0  0  0  0  0
   -0.6307    0.4742    0.7635 H   0  0  0  0  0  0  0  0  0  0  0  0
   -1.7099    0.0965   -1.9459 H   0  0  0  0  0  0  0  0  0  0  0  0
   -0.6590   -1.0812   -1.1282 H   0  0  0  0  0  0  0  0  0  0  0  0
    0.4515    0.5941   -2.7744 H   0  0  0  0  0  0  0  0  0  0  0  0
   -0.7524    2.2434   -0.9886 H   0  0  0  0  0  0  0  0  0  0  0  0
    1.5790    2.2000    0.3142 H   0  0  0  0  0  0  0  0  0  0  0  0
    5.6006    0.1483    1.5962 H   0  0  0  0  0  0  0  0  0  0  0  0
    5.7384   -1.2596    0.6481 H   0  0  0  0  0  0  0  0  0  0  0  0
    1.9106   -1.3708   -2.0722 H   0  0  0  0  0  0  0  0  0  0  0  0
  1  2  1  0
  2  3  1  0
  2  4  1  0
  2  5  1  0
  5  6  1  0
  6  7  1  0
  7  8  1  0
  7  9  1  0
  9 10  2  0
 10 11  1  0
 11 12  1  0
 11 13  2  0
 13 14  1  0
 13 15  1  0
 15 16  1  0
 15 17  2  0
 17  9  1  0
  1 18  1  0
  1 19  1  0
  1 20  1  0
  3 21  1  0
  3 22  1  0
  3 23  1  0
  4 24  1  0
  4 25  1  0
  4 26  1  0
  5 27  1  0
  6 28  1  0
  6 29  1  0
  7 30  1  0
  8 31  1  0
 10 32  1  0
 14 33  1  0
 14 34  1  0
 17 35  1  0
M  END
$$$$
