OMPs000173
     RDKit          3D

 24 26  0  0  0  0  0  0  0  0999 V2000
   -3.5609    0.0277   -0.3207 C   0  0  0  0  0  0  0  0  0  0  0  0
   -2.9756    1.2746   -0.4763 C   0  0  0  0  0  0  0  0  0  0  0  0
   -1.5876    1.4108   -0.3758 C   0  0  0  0  0  0  0  0  0  0  0  0
   -0.7350    0.3076   -0.1165 C   0  0  0  0  0  0  0  0  0  0  0  0
   -1.3614   -0.9561    0.0383 C   0  0  0  0  0  0  0  0  0  0  0  0
   -2.7576   -1.0801   -0.0650 C   0  0  0  0  0  0  0  0  0  0  0  0
   -0.5883   -2.0911    0.2959 C   0  0  0  0  0  0  0  0  0  0  0  0
    0.7966   -2.0021    0.4040 C   0  0  0  0  0  0  0  0  0  0  0  0
    1.4495   -0.7755    0.2578 C   0  0  0  0  0  0  0  0  0  0  0  0
    2.8492   -0.7199    0.3728 C   0  0  0  0  0  0  0  0  0  0  0  0
    3.5349    0.4836    0.2333 C   0  0  0  0  0  0  0  0  0  0  0  0
    2.8269    1.6474   -0.0233 C   0  0  0  0  0  0  0  0  0  0  0  0
    1.4341    1.6049   -0.1399 C   0  0  0  0  0  0  0  0  0  0  0  0
    0.6990    0.3997   -0.0045 C   0  0  0  0  0  0  0  0  0  0  0  0
   -4.6387   -0.0853   -0.3976 H   0  0  0  0  0  0  0  0  0  0  0  0
   -3.5931    2.1464   -0.6763 H   0  0  0  0  0  0  0  0  0  0  0  0
   -1.1807    2.4094   -0.5059 H   0  0  0  0  0  0  0  0  0  0  0  0
   -3.2339   -2.0512    0.0544 H   0  0  0  0  0  0  0  0  0  0  0  0
   -1.0584   -3.0648    0.4163 H   0  0  0  0  0  0  0  0  0  0  0  0
    1.3625   -2.9093    0.6052 H   0  0  0  0  0  0  0  0  0  0  0  0
    3.4210   -1.6236    0.5740 H   0  0  0  0  0  0  0  0  0  0  0  0
    4.6171    0.5093    0.3251 H   0  0  0  0  0  0  0  0  0  0  0  0
    3.3518    2.5926   -0.1341 H   0  0  0  0  0  0  0  0  0  0  0  0
    0.9286    2.5449   -0.3412 H   0  0  0  0  0  0  0  0  0  0  0  0
  1  2  2  0
  2  3  1  0
  3  4  2  0
  4  5  1  0
  5  6  2  0
  5  7  1  0
  7  8  2  0
  8  9  1  0
  9 10  2  0
 10 11  1  0
 11 12  2  0
 12 13  1  0
 13 14  2  0
  6  1  1  0
 14  4  1  0
 14  9  1  0
  1 15  1  0
  2 16  1  0
  3 17  1  0
  6 18  1  0
  7 19  1  0
  8 20  1  0
 10 21  1  0
 11 22  1  0
 12 23  1  0
 13 24  1  0
M  END
$$$$
