OMPs000131
     RDKit          3D

 69 70  0  0  0  0  0  0  0  0999 V2000
    0.0000    0.0000    0.0000 Na  0  0  0  0  0 15  0  0  0  0  0  0
    6.5496   -0.5428   -1.6272 C   0  0  0  0  0  0  0  0  0  0  0  0
    5.6997   -1.6711   -2.1970 C   0  0  0  0  0  0  0  0  0  0  0  0
    4.6916   -2.1493   -1.2463 N   0  0  0  0  0  0  0  0  0  0  0  0
    4.9316   -3.4470   -0.6159 C   0  0  0  0  0  0  0  0  0  0  0  0
    5.8083   -3.3239    0.6178 C   0  0  0  0  0  0  0  0  0  0  0  0
    3.5653   -1.3861   -0.9353 C   0  0  0  0  0  0  0  0  0  0  0  0
    2.7435   -1.6775    0.1661 C   0  0  0  0  0  0  0  0  0  0  0  0
    1.5978   -0.9231    0.4758 C   0  0  0  0  0  0  0  0  0  0  0  0
    1.2243    0.1636   -0.3127 C   0  0  0  0  0  0  0  0  0  0  0  0
    2.0360    0.4962   -1.3932 C   0  0  0  0  0  0  0  0  0  0  0  0
    3.1750   -0.2692   -1.6963 C   0  0  0  0  0  0  0  0  0  0  0  0
   -0.0274    0.9261   -0.0072 C   0  0  0  0  0  0  0  0  0  0  0  0
   -1.3123    0.1874    0.2268 C   0  0  0  0  0  0  0  0  0  0  0  0
   -2.1275    0.4931    1.3123 C   0  0  0  0  0  0  0  0  0  0  0  0
   -3.3611   -0.1572    1.4858 C   0  0  0  0  0  0  0  0  0  0  0  0
   -3.8422   -1.1262    0.5861 C   0  0  0  0  0  0  0  0  0  0  0  0
   -2.9868   -1.4219   -0.4899 C   0  0  0  0  0  0  0  0  0  0  0  0
   -1.7472   -0.7870   -0.6693 C   0  0  0  0  0  0  0  0  0  0  0  0
   -5.0770   -1.7536    0.7486 N   0  0  0  0  0  0  0  0  0  0  0  0
   -5.9065   -1.5325    1.9389 C   0  0  0  0  0  0  0  0  0  0  0  0
   -5.4498   -2.4282    3.0868 C   0  0  0  0  0  0  0  0  0  0  0  0
   -5.6462   -2.6212   -0.2880 C   0  0  0  0  0  0  0  0  0  0  0  0
   -6.3332   -1.7947   -1.3666 C   0  0  0  0  0  0  0  0  0  0  0  0
   -0.0690    2.4211   -0.1484 C   0  0  0  0  0  0  0  0  0  0  0  0
   -0.8639    2.9118   -1.2078 C   0  0  0  0  0  0  0  0  0  0  0  0
   -0.9420    4.2779   -1.4770 C   0  0  0  0  0  0  0  0  0  0  0  0
   -0.2251    5.1816   -0.6894 C   0  0  0  0  0  0  0  0  0  0  0  0
    0.5593    4.7289    0.3783 C   0  0  0  0  0  0  0  0  0  0  0  0
    0.6281    3.3467    0.6587 C   0  0  0  0  0  0  0  0  0  0  0  0
    1.5280    2.8182    2.1530 S   0  0  0  0  0  6  0  0  0  0  0  0
    0.6460    1.8273    2.7692 O   0  0  0  0  0  0  0  0  0  0  0  0
    2.7853    2.3030    1.6205 O   0  0  0  0  0  0  0  0  0  0  0  0
    1.6630    4.0414    2.9414 O   0  0  0  0  0  0  0  0  0  0  0  0
   -0.2978    6.9495   -1.1014 S   0  0  0  0  0  6  0  0  0  0  0  0
   -0.7831    6.9554   -2.4819 O   0  0  0  0  0  0  0  0  0  0  0  0
   -1.2507    7.4668   -0.1243 O   0  0  0  0  0  0  0  0  0  0  0  0
    1.0823    7.3962   -0.9437 O   0  0  0  0  0  0  0  0  0  0  0  0
    7.0631   -0.8416   -0.7055 H   0  0  0  0  0  0  0  0  0  0  0  0
    5.9580    0.3504   -1.4064 H   0  0  0  0  0  0  0  0  0  0  0  0
    7.3138   -0.2597   -2.3605 H   0  0  0  0  0  0  0  0  0  0  0  0
    6.3719   -2.4886   -2.4811 H   0  0  0  0  0  0  0  0  0  0  0  0
    5.2371   -1.3621   -3.1389 H   0  0  0  0  0  0  0  0  0  0  0  0
    5.4298   -4.1151   -1.3282 H   0  0  0  0  0  0  0  0  0  0  0  0
    3.9942   -3.9629   -0.3755 H   0  0  0  0  0  0  0  0  0  0  0  0
    5.4011   -2.6185    1.3513 H   0  0  0  0  0  0  0  0  0  0  0  0
    5.9078   -4.3020    1.0976 H   0  0  0  0  0  0  0  0  0  0  0  0
    6.8162   -2.9844    0.3481 H   0  0  0  0  0  0  0  0  0  0  0  0
    2.9912   -2.4781    0.8573 H   0  0  0  0  0  0  0  0  0  0  0  0
    1.0210   -1.1627    1.3672 H   0  0  0  0  0  0  0  0  0  0  0  0
    1.8017    1.3565   -2.0113 H   0  0  0  0  0  0  0  0  0  0  0  0
    3.7526    0.0593   -2.5535 H   0  0  0  0  0  0  0  0  0  0  0  0
   -1.8055    1.2392    2.0385 H   0  0  0  0  0  0  0  0  0  0  0  0
   -3.9354    0.1526    2.3501 H   0  0  0  0  0  0  0  0  0  0  0  0
   -3.2582   -2.1515   -1.2464 H   0  0  0  0  0  0  0  0  0  0  0  0
   -1.1342   -1.0471   -1.5274 H   0  0  0  0  0  0  0  0  0  0  0  0
   -5.9289   -0.4786    2.2449 H   0  0  0  0  0  0  0  0  0  0  0  0
   -6.9530   -1.7793    1.7141 H   0  0  0  0  0  0  0  0  0  0  0  0
   -4.4575   -2.1418    3.4415 H   0  0  0  0  0  0  0  0  0  0  0  0
   -6.1437   -2.3539    3.9320 H   0  0  0  0  0  0  0  0  0  0  0  0
   -5.4046   -3.4784    2.7758 H   0  0  0  0  0  0  0  0  0  0  0  0
   -6.3913   -3.2924    0.1564 H   0  0  0  0  0  0  0  0  0  0  0  0
   -4.9002   -3.2980   -0.7174 H   0  0  0  0  0  0  0  0  0  0  0  0
   -5.6388   -1.1044   -1.8574 H   0  0  0  0  0  0  0  0  0  0  0  0
   -6.7607   -2.4480   -2.1348 H   0  0  0  0  0  0  0  0  0  0  0  0
   -7.1482   -1.2010   -0.9360 H   0  0  0  0  0  0  0  0  0  0  0  0
   -1.4174    2.2223   -1.8395 H   0  0  0  0  0  0  0  0  0  0  0  0
   -1.5522    4.6447   -2.2981 H   0  0  0  0  0  0  0  0  0  0  0  0
    1.1041    5.4456    0.9896 H   0  0  0  0  0  0  0  0  0  0  0  0
  2  3  1  0
  3  4  1  0
  4  5  1  0
  5  6  1  0
  4  7  1  0
  7  8  2  0
  8  9  1  0
  9 10  2  0
 10 11  1  0
 11 12  2  0
 10 13  1  0
 13 14  1  0
 14 15  2  0
 15 16  1  0
 16 17  2  0
 17 18  1  0
 18 19  2  0
 17 20  1  0
 20 21  1  0
 21 22  1  0
 20 23  1  0
 23 24  1  0
 13 25  1  0
 25 26  2  0
 26 27  1  0
 27 28  2  0
 28 29  1  0
 29 30  2  0
 30 31  1  0
 31 32  1  0
 31 33  2  0
 31 34  2  0
 28 35  1  0
 35 36  1  0
 35 37  2  0
 35 38  2  0
 12  7  1  0
 19 14  1  0
 30 25  1  0
  2 39  1  0
  2 40  1  0
  2 41  1  0
  3 42  1  0
  3 43  1  0
  5 44  1  0
  5 45  1  0
  6 46  1  0
  6 47  1  0
  6 48  1  0
  8 49  1  0
  9 50  1  0
 11 51  1  0
 12 52  1  0
 15 53  1  0
 16 54  1  0
 18 55  1  0
 19 56  1  0
 21 57  1  0
 21 58  1  0
 22 59  1  0
 22 60  1  0
 22 61  1  0
 23 62  1  0
 23 63  1  0
 24 64  1  0
 24 65  1  0
 24 66  1  0
 26 67  1  0
 27 68  1  0
 29 69  1  0
M  CHG  4   1   1  13   1  32  -1  36  -1
M  END
$$$$
