OMPs000145
     RDKit          3D

 53 57  0  0  0  0  0  0  0  0999 V2000
   -2.4434    3.4907   -0.4098 C   0  0  0  0  0  0  0  0  0  0  0  0
   -3.0040    2.6823   -1.5680 C   0  0  0  0  0  0  0  0  0  0  0  0
   -2.4739    1.3575   -1.5646 O   0  0  0  0  0  0  0  0  0  0  0  0
   -3.0897    0.4907   -0.7624 C   0  0  0  0  0  0  0  0  0  0  0  0
   -4.2120    0.7062   -0.1259 N   0  0  0  0  0  0  0  0  0  0  0  0
   -4.4866   -0.4704    0.5138 C   0  0  0  0  0  0  0  0  0  0  0  0
   -5.6093   -0.7665    1.3047 C   0  0  0  0  0  0  0  0  0  0  0  0
   -5.7396   -2.0361    1.8619 C   0  0  0  0  0  0  0  0  0  0  0  0
   -4.7566   -2.9953    1.6420 C   0  0  0  0  0  0  0  0  0  0  0  0
   -3.6131   -2.7231    0.8597 C   0  0  0  0  0  0  0  0  0  0  0  0
   -2.5923   -3.7784    0.7404 C   0  0  0  0  0  0  0  0  0  0  0  0
   -3.1519   -4.9929    0.5930 O   0  0  0  0  0  0  0  0  0  0  0  0
   -1.3874   -3.6383    0.7715 O   0  0  0  0  0  0  0  0  0  0  0  0
   -3.4929   -1.4358    0.2907 C   0  0  0  0  0  0  0  0  0  0  0  0
   -2.5994   -0.7776   -0.5373 N   0  0  0  0  0  0  0  0  0  0  0  0
   -1.4090   -1.2774   -1.2090 C   0  0  0  0  0  0  0  0  0  0  0  0
   -0.1408   -0.6356   -0.6948 C   0  0  0  0  0  0  0  0  0  0  0  0
    0.6249    0.1836   -1.5373 C   0  0  0  0  0  0  0  0  0  0  0  0
    1.7988    0.7861   -1.0759 C   0  0  0  0  0  0  0  0  0  0  0  0
    2.2435    0.5789    0.2372 C   0  0  0  0  0  0  0  0  0  0  0  0
    1.4764   -0.2392    1.0781 C   0  0  0  0  0  0  0  0  0  0  0  0
    0.3006   -0.8403    0.6184 C   0  0  0  0  0  0  0  0  0  0  0  0
    3.4659    1.2320    0.7323 C   0  0  0  0  0  0  0  0  0  0  0  0
    3.3100    2.3311    1.6055 C   0  0  0  0  0  0  0  0  0  0  0  0
    4.4081    3.0397    2.0935 C   0  0  0  0  0  0  0  0  0  0  0  0
    5.6905    2.6676    1.7153 C   0  0  0  0  0  0  0  0  0  0  0  0
    5.8714    1.5830    0.8561 C   0  0  0  0  0  0  0  0  0  0  0  0
    4.7748    0.8468    0.3590 C   0  0  0  0  0  0  0  0  0  0  0  0
    5.0536   -0.2928   -0.5140 C   0  0  0  0  0  0  0  0  0  0  0  0
    6.1636   -0.4061   -1.2721 N   0  0  0  0  0  0  0  0  0  0  0  0
    5.9483   -1.6033   -1.8331 N   0  0  0  0  0  0  0  0  0  0  0  0
    4.8232   -2.2270   -1.4780 N   0  0  0  0  0  0  0  0  0  0  0  0
    4.2420   -1.3994   -0.6219 N   0  0  0  0  0  0  0  0  0  0  0  0
   -2.7592    3.0759    0.5525 H   0  0  0  0  0  0  0  0  0  0  0  0
   -1.3490    3.4713   -0.4225 H   0  0  0  0  0  0  0  0  0  0  0  0
   -2.7790    4.5301   -0.4655 H   0  0  0  0  0  0  0  0  0  0  0  0
   -2.6824    3.1464   -2.5071 H   0  0  0  0  0  0  0  0  0  0  0  0
   -4.1010    2.6894   -1.5774 H   0  0  0  0  0  0  0  0  0  0  0  0
   -6.3668   -0.0060    1.4654 H   0  0  0  0  0  0  0  0  0  0  0  0
   -6.6079   -2.2729    2.4715 H   0  0  0  0  0  0  0  0  0  0  0  0
   -4.8755   -3.9762    2.1014 H   0  0  0  0  0  0  0  0  0  0  0  0
   -2.3867   -5.6028    0.5299 H   0  0  0  0  0  0  0  0  0  0  0  0
   -1.3599   -2.3624   -1.1426 H   0  0  0  0  0  0  0  0  0  0  0  0
   -1.5452   -1.0621   -2.2772 H   0  0  0  0  0  0  0  0  0  0  0  0
    0.3089    0.3697   -2.5617 H   0  0  0  0  0  0  0  0  0  0  0  0
    2.3676    1.4222   -1.7506 H   0  0  0  0  0  0  0  0  0  0  0  0
    1.7966   -0.4230    2.1019 H   0  0  0  0  0  0  0  0  0  0  0  0
   -0.2622   -1.4729    1.3006 H   0  0  0  0  0  0  0  0  0  0  0  0
    2.3097    2.6471    1.9007 H   0  0  0  0  0  0  0  0  0  0  0  0
    4.2573    3.8837    2.7620 H   0  0  0  0  0  0  0  0  0  0  0  0
    6.5517    3.2166    2.0872 H   0  0  0  0  0  0  0  0  0  0  0  0
    6.8867    1.3046    0.5772 H   0  0  0  0  0  0  0  0  0  0  0  0
    6.6026   -2.0195   -2.4894 H   0  0  0  0  0  0  0  0  0  0  0  0
  1  2  1  0
  2  3  1  0
  3  4  1  0
  4  5  2  0
  5  6  1  0
  6  7  2  0
  7  8  1  0
  8  9  2  0
  9 10  1  0
 10 11  1  0
 11 12  1  0
 11 13  2  0
 10 14  2  0
 14 15  1  0
 15 16  1  0
 16 17  1  0
 17 18  2  0
 18 19  1  0
 19 20  2  0
 20 21  1  0
 21 22  2  0
 20 23  1  0
 23 24  2  0
 24 25  1  0
 25 26  2  0
 26 27  1  0
 27 28  2  0
 28 29  1  0
 29 30  2  0
 30 31  1  0
 31 32  1  0
 32 33  2  0
 15  4  1  0
 14  6  1  0
 22 17  1  0
 28 23  1  0
 33 29  1  0
  1 34  1  0
  1 35  1  0
  1 36  1  0
  2 37  1  0
  2 38  1  0
  7 39  1  0
  8 40  1  0
  9 41  1  0
 12 42  1  0
 16 43  1  0
 16 44  1  0
 18 45  1  0
 19 46  1  0
 21 47  1  0
 22 48  1  0
 24 49  1  0
 25 50  1  0
 26 51  1  0
 27 52  1  0
 31 53  1  0
M  END
$$$$
