OMPs000065
     RDKit          3D

 38 39  0  0  0  0  0  0  0  0999 V2000
   -4.0360    2.8277   -0.5009 C   0  0  0  0  0  0  0  0  0  0  0  0
   -3.9971    1.3943   -0.3596 N   0  0  0  0  0  0  0  0  0  0  0  0
   -5.0312    0.5288   -0.6010 C   0  0  0  0  0  0  0  0  0  0  0  0
   -4.6787   -0.7227   -0.3821 N   0  0  0  0  0  0  0  0  0  0  0  0
   -3.3778   -0.6442    0.0135 C   0  0  0  0  0  0  0  0  0  0  0  0
   -2.5657   -1.7008    0.3472 N   0  0  0  0  0  0  0  0  0  0  0  0
   -3.0740   -3.0586    0.2750 C   0  0  0  0  0  0  0  0  0  0  0  0
   -1.2430   -1.4559    0.7185 C   0  0  0  0  0  0  0  0  0  0  0  0
   -0.4603   -2.3752    0.9776 O   0  0  0  0  0  0  0  0  0  0  0  0
   -0.8291   -0.1080    0.7788 N   0  0  0  0  0  0  0  0  0  0  0  0
    0.5533    0.1504    1.1669 C   0  0  0  0  0  0  0  0  0  0  0  0
    1.4942    0.1069   -0.0412 C   0  0  0  0  0  0  0  0  0  0  0  0
    2.9468    0.3325    0.3761 C   0  0  0  0  0  0  0  0  0  0  0  0
    3.8822    0.2850   -0.8262 C   0  0  0  0  0  0  0  0  0  0  0  0
    5.3141    0.5290   -0.4016 C   0  0  0  0  0  0  0  0  0  0  0  0
    6.1045   -0.6616    0.0736 C   0  0  0  0  0  0  0  0  0  0  0  0
    5.7996    1.6600   -0.4097 O   0  0  0  0  0  0  0  0  0  0  0  0
   -1.6063    0.9965    0.4101 C   0  0  0  0  0  0  0  0  0  0  0  0
   -1.1979    2.1541    0.3962 O   0  0  0  0  0  0  0  0  0  0  0  0
   -2.9299    0.6412    0.0378 C   0  0  0  0  0  0  0  0  0  0  0  0
   -5.0339    3.1352   -0.8241 H   0  0  0  0  0  0  0  0  0  0  0  0
   -3.8073    3.2795    0.4675 H   0  0  0  0  0  0  0  0  0  0  0  0
   -3.2983    3.1234   -1.2510 H   0  0  0  0  0  0  0  0  0  0  0  0
   -6.0087    0.8573   -0.9315 H   0  0  0  0  0  0  0  0  0  0  0  0
   -2.3416   -3.7871    0.6326 H   0  0  0  0  0  0  0  0  0  0  0  0
   -3.9747   -3.1396    0.8918 H   0  0  0  0  0  0  0  0  0  0  0  0
   -3.3196   -3.2906   -0.7661 H   0  0  0  0  0  0  0  0  0  0  0  0
    0.6194    1.1312    1.6528 H   0  0  0  0  0  0  0  0  0  0  0  0
    0.8658   -0.5918    1.9109 H   0  0  0  0  0  0  0  0  0  0  0  0
    1.1948    0.8702   -0.7700 H   0  0  0  0  0  0  0  0  0  0  0  0
    1.4044   -0.8619   -0.5479 H   0  0  0  0  0  0  0  0  0  0  0  0
    3.0426    1.3026    0.8796 H   0  0  0  0  0  0  0  0  0  0  0  0
    3.2425   -0.4293    1.1077 H   0  0  0  0  0  0  0  0  0  0  0  0
    3.8244   -0.6821   -1.3378 H   0  0  0  0  0  0  0  0  0  0  0  0
    3.6101    1.0513   -1.5613 H   0  0  0  0  0  0  0  0  0  0  0  0
    5.6572   -1.0636    0.9854 H   0  0  0  0  0  0  0  0  0  0  0  0
    6.1220   -1.4261   -0.7072 H   0  0  0  0  0  0  0  0  0  0  0  0
    7.1331   -0.3578    0.2870 H   0  0  0  0  0  0  0  0  0  0  0  0
  1  2  1  0
  2  3  1  0
  3  4  2  0
  4  5  1  0
  5  6  1  0
  6  7  1  0
  6  8  1  0
  8  9  2  0
  8 10  1  0
 10 11  1  0
 11 12  1  0
 12 13  1  0
 13 14  1  0
 14 15  1  0
 15 16  1  0
 15 17  2  0
 10 18  1  0
 18 19  2  0
 18 20  1  0
 20  2  1  0
 20  5  2  0
  1 21  1  0
  1 22  1  0
  1 23  1  0
  3 24  1  0
  7 25  1  0
  7 26  1  0
  7 27  1  0
 11 28  1  0
 11 29  1  0
 12 30  1  0
 12 31  1  0
 13 32  1  0
 13 33  1  0
 14 34  1  0
 14 35  1  0
 16 36  1  0
 16 37  1  0
 16 38  1  0
M  END
$$$$
