OMPs000225
     RDKit          3D

 17 16  0  0  0  0  0  0  0  0999 V2000
    2.2400    1.1934    1.0061 O   0  0  0  0  0  0  0  0  0  0  0  0
    1.6125    0.5973   -0.0244 C   0  0  0  0  0  0  0  0  0  0  0  0
    1.4222    1.1917   -1.0717 O   0  0  0  0  0  0  0  0  0  0  0  0
    1.1896   -0.8103    0.2887 C   0  0  0  0  0  0  0  0  0  0  0  0
   -0.0989   -0.8664    1.1072 C   0  0  0  0  0  0  0  0  0  0  0  0
   -1.3709   -0.8629    0.2557 C   0  0  0  0  0  0  0  0  0  0  0  0
   -1.6525    0.4200   -0.4771 C   0  0  0  0  0  0  0  0  0  0  0  0
   -1.3832    1.5246    0.2401 O   0  0  0  0  0  0  0  0  0  0  0  0
   -2.1431    0.5061   -1.5908 O   0  0  0  0  0  0  0  0  0  0  0  0
    2.4387    2.0949    0.6772 H   0  0  0  0  0  0  0  0  0  0  0  0
    2.0080   -1.2802    0.8482 H   0  0  0  0  0  0  0  0  0  0  0  0
    1.1026   -1.3709   -0.6486 H   0  0  0  0  0  0  0  0  0  0  0  0
   -0.0934   -1.8045    1.6766 H   0  0  0  0  0  0  0  0  0  0  0  0
   -0.1271   -0.0544    1.8432 H   0  0  0  0  0  0  0  0  0  0  0  0
   -2.2378   -1.0643    0.8954 H   0  0  0  0  0  0  0  0  0  0  0  0
   -1.3152   -1.6692   -0.4849 H   0  0  0  0  0  0  0  0  0  0  0  0
   -1.5914    2.2550   -0.3812 H   0  0  0  0  0  0  0  0  0  0  0  0
  1  2  1  0
  2  3  2  0
  2  4  1  0
  4  5  1  0
  5  6  1  0
  6  7  1  0
  7  8  1  0
  7  9  2  0
  1 10  1  0
  4 11  1  0
  4 12  1  0
  5 13  1  0
  5 14  1  0
  6 15  1  0
  6 16  1  0
  8 17  1  0
M  END
$$$$
