OMPs000052
     RDKit          3D

 33 34  0  0  0  0  0  0  0  0999 V2000
    4.9834    2.1568   -0.0039 C   0  0  0  0  0  0  0  0  0  0  0  0
    4.4728    0.7298    0.1349 C   0  0  0  0  0  0  0  0  0  0  0  0
    4.2124    0.1052   -1.2339 C   0  0  0  0  0  0  0  0  0  0  0  0
    3.6814   -1.6373   -1.0941 S   0  0  0  0  0  0  0  0  0  0  0  0
    2.0215   -1.4167   -0.4688 C   0  0  0  0  0  0  0  0  0  0  0  0
    1.7175   -1.8696    0.8213 C   0  0  0  0  0  0  0  0  0  0  0  0
    0.4287   -1.7237    1.3547 C   0  0  0  0  0  0  0  0  0  0  0  0
   -0.5606   -1.1234    0.5650 C   0  0  0  0  0  0  0  0  0  0  0  0
   -1.8772   -0.8675    0.8480 N   0  0  0  0  0  0  0  0  0  0  0  0
   -2.3779   -0.3035   -0.2250 C   0  0  0  0  0  0  0  0  0  0  0  0
   -3.6532    0.1374   -0.4477 N   0  0  0  0  0  0  0  0  0  0  0  0
   -4.6469    0.0466    0.4832 C   0  0  0  0  0  0  0  0  0  0  0  0
   -4.6042   -0.4062    1.6153 O   0  0  0  0  0  0  0  0  0  0  0  0
   -5.7758    0.5741   -0.0734 O   0  0  0  0  0  0  0  0  0  0  0  0
   -6.9138    0.5480    0.7909 C   0  0  0  0  0  0  0  0  0  0  0  0
   -1.4171   -0.1844   -1.1992 N   0  0  0  0  0  0  0  0  0  0  0  0
   -0.2402   -0.6967   -0.7170 C   0  0  0  0  0  0  0  0  0  0  0  0
    1.0351   -0.8262   -1.2745 C   0  0  0  0  0  0  0  0  0  0  0  0
    5.9226    2.1848   -0.5656 H   0  0  0  0  0  0  0  0  0  0  0  0
    5.1655    2.5917    0.9838 H   0  0  0  0  0  0  0  0  0  0  0  0
    4.2529    2.7857   -0.5228 H   0  0  0  0  0  0  0  0  0  0  0  0
    5.2161    0.1421    0.6868 H   0  0  0  0  0  0  0  0  0  0  0  0
    3.5557    0.7466    0.7346 H   0  0  0  0  0  0  0  0  0  0  0  0
    3.4694    0.6813   -1.7949 H   0  0  0  0  0  0  0  0  0  0  0  0
    5.1361    0.1119   -1.8228 H   0  0  0  0  0  0  0  0  0  0  0  0
    2.4848   -2.3406    1.4322 H   0  0  0  0  0  0  0  0  0  0  0  0
    0.1912   -2.0683    2.3552 H   0  0  0  0  0  0  0  0  0  0  0  0
   -3.9168    0.5529   -1.3253 H   0  0  0  0  0  0  0  0  0  0  0  0
   -7.7569    0.9890    0.2520 H   0  0  0  0  0  0  0  0  0  0  0  0
   -6.7277    1.1451    1.6891 H   0  0  0  0  0  0  0  0  0  0  0  0
   -7.1729   -0.4824    1.0538 H   0  0  0  0  0  0  0  0  0  0  0  0
   -1.5542    0.2125   -2.1149 H   0  0  0  0  0  0  0  0  0  0  0  0
    1.2482   -0.4948   -2.2847 H   0  0  0  0  0  0  0  0  0  0  0  0
  1  2  1  0
  2  3  1  0
  3  4  1  0
  4  5  1  0
  5  6  2  0
  6  7  1  0
  7  8  2  0
  8  9  1  0
  9 10  2  0
 10 11  1  0
 11 12  1  0
 12 13  2  0
 12 14  1  0
 14 15  1  0
 10 16  1  0
 16 17  1  0
 17 18  2  0
 18  5  1  0
 17  8  1  0
  1 19  1  0
  1 20  1  0
  1 21  1  0
  2 22  1  0
  2 23  1  0
  3 24  1  0
  3 25  1  0
  6 26  1  0
  7 27  1  0
 11 28  1  0
 15 29  1  0
 15 30  1  0
 15 31  1  0
 16 32  1  0
 18 33  1  0
M  END
$$$$
