OMPs000175
     RDKit          3D

 32 32  0  0  0  0  0  0  0  0999 V2000
    0.0883   -2.4503   -0.0133 C   0  0  0  0  0  0  0  0  0  0  0  0
   -0.2847   -1.2663    0.8722 C   0  0  0  0  0  0  0  0  0  0  0  0
   -0.0285    0.0301    0.2143 N   0  0  0  0  0  0  0  0  0  0  0  0
    1.2522    0.5406   -0.0341 C   0  0  0  0  0  0  0  0  0  0  0  0
    1.4921    1.5025   -0.7645 O   0  0  0  0  0  0  0  0  0  0  0  0
    2.3905   -0.1143    0.6792 C   0  0  0  0  0  0  0  0  0  0  0  0
    3.6388   -0.0139    0.1943 C   0  0  0  0  0  0  0  0  0  0  0  0
    4.8408   -0.6051    0.8524 C   0  0  0  0  0  0  0  0  0  0  0  0
   -1.1487    0.5887   -0.4889 C   0  0  0  0  0  0  0  0  0  0  0  0
   -1.0769    0.7393   -1.8836 C   0  0  0  0  0  0  0  0  0  0  0  0
   -2.1686    1.2111   -2.6133 C   0  0  0  0  0  0  0  0  0  0  0  0
   -3.3487    1.5418   -1.9581 C   0  0  0  0  0  0  0  0  0  0  0  0
   -3.4291    1.4218   -0.5714 C   0  0  0  0  0  0  0  0  0  0  0  0
   -2.3310    0.9670    0.1821 C   0  0  0  0  0  0  0  0  0  0  0  0
   -2.4733    0.9484    1.6799 C   0  0  0  0  0  0  0  0  0  0  0  0
   -0.4853   -2.4363   -0.9459 H   0  0  0  0  0  0  0  0  0  0  0  0
   -0.1277   -3.3902    0.5043 H   0  0  0  0  0  0  0  0  0  0  0  0
    1.1497   -2.4467   -0.2765 H   0  0  0  0  0  0  0  0  0  0  0  0
   -1.3423   -1.3646    1.1329 H   0  0  0  0  0  0  0  0  0  0  0  0
    0.2640   -1.3104    1.8169 H   0  0  0  0  0  0  0  0  0  0  0  0
    2.2031   -0.6286    1.6094 H   0  0  0  0  0  0  0  0  0  0  0  0
    3.8156    0.5329   -0.7313 H   0  0  0  0  0  0  0  0  0  0  0  0
    5.3261   -1.3137    0.1743 H   0  0  0  0  0  0  0  0  0  0  0  0
    5.5582    0.1841    1.0968 H   0  0  0  0  0  0  0  0  0  0  0  0
    4.5881   -1.1351    1.7761 H   0  0  0  0  0  0  0  0  0  0  0  0
   -0.1697    0.4709   -2.4200 H   0  0  0  0  0  0  0  0  0  0  0  0
   -2.0933    1.3164   -3.6921 H   0  0  0  0  0  0  0  0  0  0  0  0
   -4.2013    1.9083   -2.5236 H   0  0  0  0  0  0  0  0  0  0  0  0
   -4.3524    1.7094   -0.0722 H   0  0  0  0  0  0  0  0  0  0  0  0
   -2.9721    0.0296    2.0026 H   0  0  0  0  0  0  0  0  0  0  0  0
   -1.5046    1.0294    2.1822 H   0  0  0  0  0  0  0  0  0  0  0  0
   -3.0693    1.8033    2.0188 H   0  0  0  0  0  0  0  0  0  0  0  0
  1  2  1  0
  2  3  1  0
  3  4  1  0
  4  5  2  0
  4  6  1  0
  6  7  2  0
  7  8  1  0
  3  9  1  0
  9 10  2  0
 10 11  1  0
 11 12  2  0
 12 13  1  0
 13 14  2  0
 14 15  1  0
 14  9  1  0
  1 16  1  0
  1 17  1  0
  1 18  1  0
  2 19  1  0
  2 20  1  0
  6 21  1  0
  7 22  1  0
  8 23  1  0
  8 24  1  0
  8 25  1  0
 10 26  1  0
 11 27  1  0
 12 28  1  0
 13 29  1  0
 15 30  1  0
 15 31  1  0
 15 32  1  0
M  END
$$$$
