OMPs000195
     RDKit          3D

  8  7  0  0  0  0  0  0  0  0999 V2000
    1.4240   -0.6780    0.1651 O   0  0  0  0  0  0  0  0  0  0  0  0
    0.4959    0.3050    0.1040 C   0  0  0  0  0  0  0  0  0  0  0  0
    0.8400    1.4644    0.2577 O   0  0  0  0  0  0  0  0  0  0  0  0
   -0.8808   -0.2481   -0.1595 C   0  0  0  0  0  0  0  0  0  0  0  0
   -2.0881    1.0503   -0.2373 Cl  0  0  0  0  0  0  0  0  0  0  0  0
    2.2621   -0.1970    0.3380 H   0  0  0  0  0  0  0  0  0  0  0  0
   -0.8878   -0.7722   -1.1183 H   0  0  0  0  0  0  0  0  0  0  0  0
   -1.1653   -0.9243    0.6504 H   0  0  0  0  0  0  0  0  0  0  0  0
  1  2  1  0
  2  3  2  0
  2  4  1  0
  4  5  1  0
  1  6  1  0
  4  7  1  0
  4  8  1  0
M  END
$$$$
