OMPs000177
     RDKit          3D

 28 29  0  0  0  0  0  0  0  0999 V2000
    0.3870   -2.8554    0.7497 O   0  0  0  0  0  0  0  0  0  0  0  0
    0.1572   -1.7929    1.9405 S   0  0  0  0  0  6  0  0  0  0  0  0
    1.4114   -1.7973    2.6638 O   0  0  0  0  0  0  0  0  0  0  0  0
   -1.0734   -2.1560    2.6061 O   0  0  0  0  0  0  0  0  0  0  0  0
   -0.0312   -0.3020    1.1450 N   0  0  0  0  0  0  0  0  0  0  0  0
   -1.3092    0.0108    0.5495 C   0  0  0  0  0  0  0  0  0  0  0  0
   -1.7274    1.3485    0.5786 C   0  0  0  0  0  0  0  0  0  0  0  0
   -2.9141    1.7389   -0.0451 C   0  0  0  0  0  0  0  0  0  0  0  0
   -3.6851    0.7973   -0.7223 C   0  0  0  0  0  0  0  0  0  0  0  0
   -3.2657   -0.5302   -0.7822 C   0  0  0  0  0  0  0  0  0  0  0  0
   -2.0768   -0.9208   -0.1592 C   0  0  0  0  0  0  0  0  0  0  0  0
    1.1265    0.1596    0.4194 C   0  0  0  0  0  0  0  0  0  0  0  0
    1.3303   -0.1602   -0.9283 C   0  0  0  0  0  0  0  0  0  0  0  0
    2.4934    0.2552   -1.5796 C   0  0  0  0  0  0  0  0  0  0  0  0
    3.4638    0.9754   -0.8838 C   0  0  0  0  0  0  0  0  0  0  0  0
    3.2760    1.2770    0.4644 C   0  0  0  0  0  0  0  0  0  0  0  0
    2.1130    0.8640    1.1162 C   0  0  0  0  0  0  0  0  0  0  0  0
    1.3163   -3.1571    0.8297 H   0  0  0  0  0  0  0  0  0  0  0  0
   -1.1304    2.0934    1.0989 H   0  0  0  0  0  0  0  0  0  0  0  0
   -3.2339    2.7768   -0.0025 H   0  0  0  0  0  0  0  0  0  0  0  0
   -4.6109    1.0980   -1.2064 H   0  0  0  0  0  0  0  0  0  0  0  0
   -3.8634   -1.2652   -1.3158 H   0  0  0  0  0  0  0  0  0  0  0  0
   -1.7732   -1.9603   -0.2383 H   0  0  0  0  0  0  0  0  0  0  0  0
    0.5900   -0.7305   -1.4823 H   0  0  0  0  0  0  0  0  0  0  0  0
    2.6434    0.0150   -2.6293 H   0  0  0  0  0  0  0  0  0  0  0  0
    4.3700    1.2978   -1.3912 H   0  0  0  0  0  0  0  0  0  0  0  0
    4.0368    1.8289    1.0107 H   0  0  0  0  0  0  0  0  0  0  0  0
    1.9797    1.0911    2.1713 H   0  0  0  0  0  0  0  0  0  0  0  0
  1  2  1  0
  2  3  2  0
  2  4  2  0
  2  5  1  0
  5  6  1  0
  6  7  2  0
  7  8  1  0
  8  9  2  0
  9 10  1  0
 10 11  2  0
  5 12  1  0
 12 13  2  0
 13 14  1  0
 14 15  2  0
 15 16  1  0
 16 17  2  0
 11  6  1  0
 17 12  1  0
  1 18  1  0
  7 19  1  0
  8 20  1  0
  9 21  1  0
 10 22  1  0
 11 23  1  0
 13 24  1  0
 14 25  1  0
 15 26  1  0
 16 27  1  0
 17 28  1  0
M  END
$$$$
