OMPs000160
     RDKit          3D

 13 13  0  0  0  0  0  0  0  0999 V2000
    0.1965   -1.2616   -0.4893 C   0  0  0  0  0  0  0  0  0  0  0  0
   -0.9785   -0.6498   -0.0634 C   0  0  0  0  0  0  0  0  0  0  0  0
   -0.9652    0.6643    0.4082 C   0  0  0  0  0  0  0  0  0  0  0  0
    0.2314    1.3761    0.4559 C   0  0  0  0  0  0  0  0  0  0  0  0
    1.4166    0.7673    0.0293 C   0  0  0  0  0  0  0  0  0  0  0  0
    1.3999   -0.5529   -0.4440 C   0  0  0  0  0  0  0  0  0  0  0  0
    2.8288   -1.3594   -0.9845 Cl  0  0  0  0  0  0  0  0  0  0  0  0
    2.8688    1.7005    0.1122 Cl  0  0  0  0  0  0  0  0  0  0  0  0
   -2.4233    1.4169    0.9344 Cl  0  0  0  0  0  0  0  0  0  0  0  0
   -2.1281   -1.3868   -0.1284 O   0  0  0  0  0  0  0  0  0  0  0  0
    0.1679   -2.2853   -0.8536 H   0  0  0  0  0  0  0  0  0  0  0  0
    0.2437    2.3994    0.8228 H   0  0  0  0  0  0  0  0  0  0  0  0
   -2.8584   -0.8286    0.2005 H   0  0  0  0  0  0  0  0  0  0  0  0
  1  2  2  0
  2  3  1  0
  3  4  2  0
  4  5  1  0
  5  6  2  0
  6  7  1  0
  5  8  1  0
  3  9  1  0
  2 10  1  0
  6  1  1  0
  1 11  1  0
  4 12  1  0
 10 13  1  0
M  END
$$$$
