OMPs000150
     RDKit          3D

 18 17  0  0  0  0  0  0  0  0999 V2000
   -2.5355    0.6120   -0.2168 C   0  0  0  0  0  0  0  0  0  0  0  0
   -1.2863   -0.2557   -0.2663 C   0  0  0  0  0  0  0  0  0  0  0  0
   -0.1894    0.2958    0.6455 C   0  0  0  0  0  0  0  0  0  0  0  0
    1.0239   -0.6204    0.7731 C   0  0  0  0  0  0  0  0  0  0  0  0
    2.1033   -0.6751   -0.6511 S   0  0  0  0  0  6  0  0  0  0  0  0
    1.3619   -1.1682   -1.7939 O   0  0  0  0  0  0  0  0  0  0  0  0
    3.3481   -1.2995   -0.2466 O   0  0  0  0  0  0  0  0  0  0  0  0
    2.3490    0.9291   -0.8313 O   0  0  0  0  0  0  0  0  0  0  0  0
    3.0141    1.4836    0.2929 F   0  0  0  0  0  0  0  0  0  0  0  0
   -3.3056    0.2054   -0.8798 H   0  0  0  0  0  0  0  0  0  0  0  0
   -2.3152    1.6348   -0.5386 H   0  0  0  0  0  0  0  0  0  0  0  0
   -2.9469    0.6510    0.7969 H   0  0  0  0  0  0  0  0  0  0  0  0
   -1.5472   -1.2765    0.0356 H   0  0  0  0  0  0  0  0  0  0  0  0
   -0.9387   -0.2985   -1.3024 H   0  0  0  0  0  0  0  0  0  0  0  0
   -0.6114    0.4266    1.6502 H   0  0  0  0  0  0  0  0  0  0  0  0
    0.1092    1.2925    0.3024 H   0  0  0  0  0  0  0  0  0  0  0  0
    1.6467   -0.2850    1.6101 H   0  0  0  0  0  0  0  0  0  0  0  0
    0.7199   -1.6518    0.9803 H   0  0  0  0  0  0  0  0  0  0  0  0
  1  2  1  0
  2  3  1  0
  3  4  1  0
  4  5  1  0
  5  6  2  0
  5  7  2  0
  5  8  1  0
  8  9  1  0
  1 10  1  0
  1 11  1  0
  1 12  1  0
  2 13  1  0
  2 14  1  0
  3 15  1  0
  3 16  1  0
  4 17  1  0
  4 18  1  0
M  END
$$$$
