OMPs000047
     RDKit          3D

 29 29  0  0  0  0  0  0  0  0999 V2000
   -2.8760   -1.9943    1.4052 C   0  0  0  0  0  0  0  0  0  0  0  0
   -2.1373   -0.6909    1.5445 C   0  0  0  0  0  0  0  0  0  0  0  0
   -1.9867   -0.1355    2.6273 O   0  0  0  0  0  0  0  0  0  0  0  0
   -1.6697   -0.1803    0.3555 N   0  0  0  0  0  0  0  0  0  0  0  0
   -1.0674    1.1562    0.3132 C   0  0  1  0  0  0  0  0  0  0  0  0
   -0.0744    1.3044   -0.8465 C   0  0  0  0  0  0  0  0  0  0  0  0
    1.1339    0.4042   -0.7247 C   0  0  0  0  0  0  0  0  0  0  0  0
    1.3148   -0.6672   -1.6109 C   0  0  0  0  0  0  0  0  0  0  0  0
    2.4283   -1.5004   -1.4938 C   0  0  0  0  0  0  0  0  0  0  0  0
    3.3623   -1.2662   -0.4928 C   0  0  0  0  0  0  0  0  0  0  0  0
    4.4330   -2.1067   -0.4133 O   0  0  0  0  0  0  0  0  0  0  0  0
    3.2041   -0.2077    0.3949 C   0  0  0  0  0  0  0  0  0  0  0  0
    2.0908    0.6276    0.2768 C   0  0  0  0  0  0  0  0  0  0  0  0
   -2.1868    2.1749    0.1169 C   0  0  0  0  0  0  0  0  0  0  0  0
   -1.8719    3.4042    0.5728 O   0  0  0  0  0  0  0  0  0  0  0  0
   -3.2596    1.9749   -0.4348 O   0  0  0  0  0  0  0  0  0  0  0  0
   -2.5526   -2.6756    2.1970 H   0  0  0  0  0  0  0  0  0  0  0  0
   -3.9496   -1.8087    1.4925 H   0  0  0  0  0  0  0  0  0  0  0  0
   -2.6715   -2.4695    0.4416 H   0  0  0  0  0  0  0  0  0  0  0  0
   -2.1350   -0.4933   -0.4879 H   0  0  0  0  0  0  0  0  0  0  0  0
   -0.5880    1.3546    1.2789 H   0  0  0  0  0  0  0  0  0  0  0  0
    0.2797    2.3420   -0.9121 H   0  0  0  0  0  0  0  0  0  0  0  0
   -0.5840    1.1099   -1.8002 H   0  0  0  0  0  0  0  0  0  0  0  0
    0.5916   -0.8643   -2.3985 H   0  0  0  0  0  0  0  0  0  0  0  0
    2.5661   -2.3306   -2.1806 H   0  0  0  0  0  0  0  0  0  0  0  0
    4.9831   -1.8336    0.3389 H   0  0  0  0  0  0  0  0  0  0  0  0
    3.9288   -0.0175    1.1801 H   0  0  0  0  0  0  0  0  0  0  0  0
    1.9745    1.4535    0.9757 H   0  0  0  0  0  0  0  0  0  0  0  0
   -2.6806    3.9358    0.4147 H   0  0  0  0  0  0  0  0  0  0  0  0
  1  2  1  0
  2  3  2  0
  2  4  1  0
  4  5  1  0
  5  6  1  0
  6  7  1  0
  7  8  2  0
  8  9  1  0
  9 10  2  0
 10 11  1  0
 10 12  1  0
 12 13  2  0
  5 14  1  0
 14 15  1  0
 14 16  2  0
 13  7  1  0
  1 17  1  0
  1 18  1  0
  1 19  1  0
  4 20  1  0
  5 21  1  1
  6 22  1  0
  6 23  1  0
  8 24  1  0
  9 25  1  0
 11 26  1  0
 12 27  1  0
 13 28  1  0
 15 29  1  0
M  END
$$$$
