OMPs000200
     RDKit          3D

 29 28  0  0  0  0  0  0  0  0999 V2000
    4.9949    0.8414    0.5625 C   0  0  0  0  0  0  0  0  0  0  0  0
    3.9906    0.4848   -0.5218 C   0  0  0  0  0  0  0  0  0  0  0  0
    2.6322    0.1185    0.0720 C   0  0  0  0  0  0  0  0  0  0  0  0
    1.6232   -0.2380   -1.0174 C   0  0  0  0  0  0  0  0  0  0  0  0
    0.3965   -0.7113   -0.4648 O   0  0  0  0  0  0  0  0  0  0  0  0
   -0.4376    0.3323    0.0516 C   0  0  0  0  0  0  0  0  0  0  0  0
   -1.8083   -0.2437    0.4109 C   0  0  0  0  0  0  0  0  0  0  0  0
   -2.5601   -0.4557   -0.7905 O   0  0  0  0  0  0  0  0  0  0  0  0
   -3.7226   -1.2669   -0.5913 C   0  0  0  0  0  0  0  0  0  0  0  0
   -4.8429   -0.5261    0.1402 C   0  0  0  0  0  0  0  0  0  0  0  0
   -4.6149   -0.5255    1.5491 O   0  0  0  0  0  0  0  0  0  0  0  0
    4.6516    1.7002    1.1483 H   0  0  0  0  0  0  0  0  0  0  0  0
    5.1507   -0.0002    1.2450 H   0  0  0  0  0  0  0  0  0  0  0  0
    5.9600    1.0993    0.1153 H   0  0  0  0  0  0  0  0  0  0  0  0
    3.8810    1.3353   -1.2046 H   0  0  0  0  0  0  0  0  0  0  0  0
    4.3796   -0.3552   -1.1090 H   0  0  0  0  0  0  0  0  0  0  0  0
    2.7342   -0.7275    0.7629 H   0  0  0  0  0  0  0  0  0  0  0  0
    2.2565    0.9554    0.6717 H   0  0  0  0  0  0  0  0  0  0  0  0
    2.0243   -1.0532   -1.6295 H   0  0  0  0  0  0  0  0  0  0  0  0
    1.4384    0.6087   -1.6888 H   0  0  0  0  0  0  0  0  0  0  0  0
    0.0261    0.7412    0.9543 H   0  0  0  0  0  0  0  0  0  0  0  0
   -0.5476    1.1222   -0.6998 H   0  0  0  0  0  0  0  0  0  0  0  0
   -2.3421    0.4799    1.0337 H   0  0  0  0  0  0  0  0  0  0  0  0
   -1.6878   -1.1895    0.9508 H   0  0  0  0  0  0  0  0  0  0  0  0
   -4.0771   -1.5309   -1.5931 H   0  0  0  0  0  0  0  0  0  0  0  0
   -3.4456   -2.1940   -0.0770 H   0  0  0  0  0  0  0  0  0  0  0  0
   -5.7981   -1.0301   -0.0352 H   0  0  0  0  0  0  0  0  0  0  0  0
   -4.9088    0.5130   -0.1967 H   0  0  0  0  0  0  0  0  0  0  0  0
   -5.3462   -0.0260    1.9513 H   0  0  0  0  0  0  0  0  0  0  0  0
  1  2  1  0
  2  3  1  0
  3  4  1  0
  4  5  1  0
  5  6  1  0
  6  7  1  0
  7  8  1  0
  8  9  1  0
  9 10  1  0
 10 11  1  0
  1 12  1  0
  1 13  1  0
  1 14  1  0
  2 15  1  0
  2 16  1  0
  3 17  1  0
  3 18  1  0
  4 19  1  0
  4 20  1  0
  6 21  1  0
  6 22  1  0
  7 23  1  0
  7 24  1  0
  9 25  1  0
  9 26  1  0
 10 27  1  0
 10 28  1  0
 11 29  1  0
M  END
$$$$
