OMPs000170
     RDKit          3D

 30 30  0  0  0  0  0  0  0  0999 V2000
   -3.0712    2.2245    0.3721 C   0  0  0  0  0  0  0  0  0  0  0  0
   -1.8297    2.0621   -0.4842 C   0  0  0  0  0  0  0  0  0  0  0  0
   -1.1714    0.8278   -0.1671 O   0  0  0  0  0  0  0  0  0  0  0  0
   -1.5861   -0.2510   -0.8746 C   0  0  0  0  0  0  0  0  0  0  0  0
   -2.5136   -0.3038   -1.6643 O   0  0  0  0  0  0  0  0  0  0  0  0
   -0.8198   -1.4345   -0.4392 C   0  0  0  0  0  0  0  0  0  0  0  0
   -1.5523   -2.5857   -0.1128 C   0  0  0  0  0  0  0  0  0  0  0  0
   -0.8966   -3.7266    0.3529 C   0  0  0  0  0  0  0  0  0  0  0  0
    0.4911   -3.7272    0.4890 C   0  0  0  0  0  0  0  0  0  0  0  0
    1.2283   -2.5915    0.1469 C   0  0  0  0  0  0  0  0  0  0  0  0
    0.5753   -1.4408   -0.3239 C   0  0  0  0  0  0  0  0  0  0  0  0
    1.3801   -0.2863   -0.7720 C   0  0  0  0  0  0  0  0  0  0  0  0
    1.1788    0.3242   -1.8071 O   0  0  0  0  0  0  0  0  0  0  0  0
    2.3401   -0.0341    0.1517 O   0  0  0  0  0  0  0  0  0  0  0  0
    3.1855    1.0909   -0.1289 C   0  0  0  0  0  0  0  0  0  0  0  0
    2.5418    2.3688    0.3761 C   0  0  0  0  0  0  0  0  0  0  0  0
   -2.8158    2.1625    1.4350 H   0  0  0  0  0  0  0  0  0  0  0  0
   -3.7937    1.4272    0.1713 H   0  0  0  0  0  0  0  0  0  0  0  0
   -3.5516    3.1880    0.1801 H   0  0  0  0  0  0  0  0  0  0  0  0
   -2.0684    2.1249   -1.5522 H   0  0  0  0  0  0  0  0  0  0  0  0
   -1.1222    2.8682   -0.2645 H   0  0  0  0  0  0  0  0  0  0  0  0
   -2.6364   -2.5905   -0.2144 H   0  0  0  0  0  0  0  0  0  0  0  0
   -1.4694   -4.6153    0.6090 H   0  0  0  0  0  0  0  0  0  0  0  0
    1.0011   -4.6181    0.8493 H   0  0  0  0  0  0  0  0  0  0  0  0
    2.3129   -2.6146    0.2314 H   0  0  0  0  0  0  0  0  0  0  0  0
    3.4207    1.1550   -1.1976 H   0  0  0  0  0  0  0  0  0  0  0  0
    4.1296    0.9208    0.3989 H   0  0  0  0  0  0  0  0  0  0  0  0
    3.2073    3.2236    0.2263 H   0  0  0  0  0  0  0  0  0  0  0  0
    1.5989    2.5657   -0.1436 H   0  0  0  0  0  0  0  0  0  0  0  0
    2.3066    2.2858    1.4422 H   0  0  0  0  0  0  0  0  0  0  0  0
  1  2  1  0
  2  3  1  0
  3  4  1  0
  4  5  2  0
  4  6  1  0
  6  7  2  0
  7  8  1  0
  8  9  2  0
  9 10  1  0
 10 11  2  0
 11 12  1  0
 12 13  2  0
 12 14  1  0
 14 15  1  0
 15 16  1  0
 11  6  1  0
  1 17  1  0
  1 18  1  0
  1 19  1  0
  2 20  1  0
  2 21  1  0
  7 22  1  0
  8 23  1  0
  9 24  1  0
 10 25  1  0
 15 26  1  0
 15 27  1  0
 16 28  1  0
 16 29  1  0
 16 30  1  0
M  END
$$$$
