OMPs000209
     RDKit          3D

 25 25  0  0  0  0  0  0  0  0999 V2000
    2.3307   -1.6732    0.8348 C   0  0  0  0  0  0  0  0  0  0  0  0
    1.7805   -0.5463   -0.0325 C   0  0  0  0  0  0  0  0  0  0  0  0
    0.6485    0.0204    0.6351 O   0  0  0  0  0  0  0  0  0  0  0  0
   -0.5697   -0.1785    0.0418 C   0  0  0  0  0  0  0  0  0  0  0  0
   -0.9567   -1.3993   -0.5201 C   0  0  0  0  0  0  0  0  0  0  0  0
   -2.2270   -1.5429   -1.0829 C   0  0  0  0  0  0  0  0  0  0  0  0
   -3.1142   -0.4705   -1.0712 C   0  0  0  0  0  0  0  0  0  0  0  0
   -4.6775   -0.6478   -1.7677 Cl  0  0  0  0  0  0  0  0  0  0  0  0
   -2.7469    0.7426   -0.4916 C   0  0  0  0  0  0  0  0  0  0  0  0
   -1.4753    0.8955    0.0827 C   0  0  0  0  0  0  0  0  0  0  0  0
   -1.0867    2.2089    0.7021 C   0  0  0  0  0  0  0  0  0  0  0  0
    2.8428    0.5360   -0.2161 C   0  0  0  0  0  0  0  0  0  0  0  0
    2.3534    1.6904   -0.7183 O   0  0  0  0  0  0  0  0  0  0  0  0
    4.0419    0.4301   -0.0065 O   0  0  0  0  0  0  0  0  0  0  0  0
    1.5734   -2.4447    1.0054 H   0  0  0  0  0  0  0  0  0  0  0  0
    2.6266   -1.2980    1.8214 H   0  0  0  0  0  0  0  0  0  0  0  0
    3.2055   -2.1414    0.3721 H   0  0  0  0  0  0  0  0  0  0  0  0
    1.5496   -0.9175   -1.0391 H   0  0  0  0  0  0  0  0  0  0  0  0
   -0.2941   -2.2588   -0.5145 H   0  0  0  0  0  0  0  0  0  0  0  0
   -2.5193   -2.4938   -1.5201 H   0  0  0  0  0  0  0  0  0  0  0  0
   -3.4525    1.5700   -0.4833 H   0  0  0  0  0  0  0  0  0  0  0  0
   -1.9396    2.8937    0.7569 H   0  0  0  0  0  0  0  0  0  0  0  0
   -0.7237    2.0583    1.7240 H   0  0  0  0  0  0  0  0  0  0  0  0
   -0.3057    2.6905    0.1056 H   0  0  0  0  0  0  0  0  0  0  0  0
    3.1360    2.2762   -0.7799 H   0  0  0  0  0  0  0  0  0  0  0  0
  1  2  1  0
  2  3  1  0
  3  4  1  0
  4  5  2  0
  5  6  1  0
  6  7  2  0
  7  8  1  0
  7  9  1  0
  9 10  2  0
 10 11  1  0
  2 12  1  0
 12 13  1  0
 12 14  2  0
 10  4  1  0
  1 15  1  0
  1 16  1  0
  1 17  1  0
  2 18  1  0
  5 19  1  0
  6 20  1  0
  9 21  1  0
 11 22  1  0
 11 23  1  0
 11 24  1  0
 13 25  1  0
M  END
$$$$
