OMPs000164
     RDKit          3D

 13 13  0  0  0  0  0  0  0  0999 V2000
   -2.4010   -0.8704    0.0119 O   0  0  0  0  0  0  0  0  0  0  0  0
   -1.1195   -0.3725    0.0036 C   0  0  0  0  0  0  0  0  0  0  0  0
   -0.9273    1.0130   -0.0748 C   0  0  0  0  0  0  0  0  0  0  0  0
   -2.3187    2.0489   -0.1586 Cl  0  0  0  0  0  0  0  0  0  0  0  0
    0.3764    1.5357   -0.0843 C   0  0  0  0  0  0  0  0  0  0  0  0
    0.6215    3.2567   -0.1816 Cl  0  0  0  0  0  0  0  0  0  0  0  0
    1.4816    0.6626   -0.0147 C   0  0  0  0  0  0  0  0  0  0  0  0
    3.1015    1.3059   -0.0261 Cl  0  0  0  0  0  0  0  0  0  0  0  0
    1.2809   -0.7299    0.0640 C   0  0  0  0  0  0  0  0  0  0  0  0
    2.6366   -1.8168    0.1502 Cl  0  0  0  0  0  0  0  0  0  0  0  0
   -0.0244   -1.2425    0.0728 C   0  0  0  0  0  0  0  0  0  0  0  0
   -0.3453   -2.9463    0.1678 Cl  0  0  0  0  0  0  0  0  0  0  0  0
   -2.3624   -1.8443    0.0699 H   0  0  0  0  0  0  0  0  0  0  0  0
  1  2  1  0
  2  3  2  0
  3  4  1  0
  3  5  1  0
  5  6  1  0
  5  7  2  0
  7  8  1  0
  7  9  1  0
  9 10  1  0
  9 11  2  0
 11 12  1  0
 11  2  1  0
  1 13  1  0
M  END
$$$$
