OMPs000108
     RDKit          3D

 38 38  0  0  0  0  0  0  0  0999 V2000
   -3.8411    1.1933    0.6434 C   0  0  0  0  0  0  0  0  0  0  0  0
   -2.8267    0.4007   -0.1963 C   0  0  0  0  0  0  0  0  0  0  0  0
   -3.1058    0.6804   -1.6857 C   0  0  0  0  0  0  0  0  0  0  0  0
   -2.9982   -1.1065    0.0565 C   0  0  0  0  0  0  0  0  0  0  0  0
   -1.4389    0.8410    0.0460 N   0  0  0  0  0  0  0  0  0  0  0  0
   -0.9656    0.7394    1.4411 C   0  0  0  0  0  0  0  0  0  0  0  0
    0.5035    1.2305    1.5566 C   0  0  0  0  0  0  0  0  0  0  0  0
    0.6418    2.4761    0.8636 O   0  0  0  0  0  0  0  0  0  0  0  0
    1.5100    0.2167    1.0449 C   0  0  0  0  0  0  0  0  0  0  0  0
    1.9173   -0.8366    1.8765 C   0  0  0  0  0  0  0  0  0  0  0  0
    2.8148   -1.8018    1.4167 C   0  0  0  0  0  0  0  0  0  0  0  0
    3.3175   -1.7190    0.1192 C   0  0  0  0  0  0  0  0  0  0  0  0
    4.1821   -2.6731   -0.3378 O   0  0  0  0  0  0  0  0  0  0  0  0
    2.9499   -0.6738   -0.7325 C   0  0  0  0  0  0  0  0  0  0  0  0
    3.4673   -0.5940   -2.1465 C   0  0  0  0  0  0  0  0  0  0  0  0
    3.7231    0.7537   -2.5362 O   0  0  0  0  0  0  0  0  0  0  0  0
    2.0290    0.2786   -0.2593 C   0  0  0  0  0  0  0  0  0  0  0  0
   -3.7025    2.2736    0.5198 H   0  0  0  0  0  0  0  0  0  0  0  0
   -3.7608    0.9610    1.7107 H   0  0  0  0  0  0  0  0  0  0  0  0
   -4.8683    0.9575    0.3411 H   0  0  0  0  0  0  0  0  0  0  0  0
   -4.1258    0.3860   -1.9591 H   0  0  0  0  0  0  0  0  0  0  0  0
   -2.4192    0.1242   -2.3353 H   0  0  0  0  0  0  0  0  0  0  0  0
   -2.9972    1.7463   -1.9195 H   0  0  0  0  0  0  0  0  0  0  0  0
   -3.9933   -1.4442   -0.2562 H   0  0  0  0  0  0  0  0  0  0  0  0
   -2.8914   -1.3595    1.1165 H   0  0  0  0  0  0  0  0  0  0  0  0
   -2.2616   -1.6921   -0.5058 H   0  0  0  0  0  0  0  0  0  0  0  0
   -0.8128    0.2850   -0.5440 H   0  0  0  0  0  0  0  0  0  0  0  0
   -1.0534   -0.2794    1.8310 H   0  0  0  0  0  0  0  0  0  0  0  0
   -1.5732    1.4048    2.0639 H   0  0  0  0  0  0  0  0  0  0  0  0
    0.7288    1.4397    2.6091 H   0  0  0  0  0  0  0  0  0  0  0  0
   -0.1276    2.5073    0.2581 H   0  0  0  0  0  0  0  0  0  0  0  0
    1.5338   -0.9136    2.8918 H   0  0  0  0  0  0  0  0  0  0  0  0
    3.1061   -2.6092    2.0817 H   0  0  0  0  0  0  0  0  0  0  0  0
    4.3535   -3.3106    0.3750 H   0  0  0  0  0  0  0  0  0  0  0  0
    4.4085   -1.1392   -2.2641 H   0  0  0  0  0  0  0  0  0  0  0  0
    2.7320   -1.0207   -2.8359 H   0  0  0  0  0  0  0  0  0  0  0  0
    4.1284    1.1916   -1.7674 H   0  0  0  0  0  0  0  0  0  0  0  0
    1.7161    1.0858   -0.9220 H   0  0  0  0  0  0  0  0  0  0  0  0
  1  2  1  0
  2  3  1  0
  2  4  1  0
  2  5  1  0
  5  6  1  0
  6  7  1  0
  7  8  1  0
  7  9  1  0
  9 10  2  0
 10 11  1  0
 11 12  2  0
 12 13  1  0
 12 14  1  0
 14 15  1  0
 15 16  1  0
 14 17  2  0
 17  9  1  0
  1 18  1  0
  1 19  1  0
  1 20  1  0
  3 21  1  0
  3 22  1  0
  3 23  1  0
  4 24  1  0
  4 25  1  0
  4 26  1  0
  5 27  1  0
  6 28  1  0
  6 29  1  0
  7 30  1  0
  8 31  1  0
 10 32  1  0
 11 33  1  0
 13 34  1  0
 15 35  1  0
 15 36  1  0
 16 37  1  0
 17 38  1  0
M  END
$$$$
