OMPs000128
     RDKit          3D

 51 52  0  0  0  0  0  0  0  0999 V2000
    0.0000    0.0000    0.0000 Cl  0  0  0  0  0  0  0  0  0  0  0  0
    5.1625    2.5739   -1.7080 C   0  0  0  0  0  0  0  0  0  0  0  0
    4.8111    2.1387   -0.3571 N   0  0  0  0  0  0  0  0  0  0  0  0
    5.9280    1.9719    0.5669 C   0  0  0  0  0  0  0  0  0  0  0  0
    3.6567    1.3650   -0.1861 C   0  0  0  0  0  0  0  0  0  0  0  0
    2.5907    1.4101   -1.1011 C   0  0  0  0  0  0  0  0  0  0  0  0
    1.4232    0.6486   -0.9337 C   0  0  0  0  0  0  0  0  0  0  0  0
    1.2726   -0.1882    0.1728 C   0  0  0  0  0  0  0  0  0  0  0  0
    2.3076   -0.2376    1.1068 C   0  0  0  0  0  0  0  0  0  0  0  0
    3.4702    0.5285    0.9286 C   0  0  0  0  0  0  0  0  0  0  0  0
    0.0250   -1.0014    0.3606 C   0  0  0  0  0  0  0  0  0  0  0  0
    0.1228   -2.4426    0.7741 C   0  0  0  0  0  0  0  0  0  0  0  0
   -0.7261   -2.9620    1.7607 C   0  0  0  0  0  0  0  0  0  0  0  0
   -0.6320   -4.3010    2.1450 C   0  0  0  0  0  0  0  0  0  0  0  0
    0.3093   -5.1342    1.5475 C   0  0  0  0  0  0  0  0  0  0  0  0
    1.1586   -4.6307    0.5646 C   0  0  0  0  0  0  0  0  0  0  0  0
    1.0671   -3.2918    0.1793 C   0  0  0  0  0  0  0  0  0  0  0  0
   -1.3195   -0.3692    0.1444 C   0  0  0  0  0  0  0  0  0  0  0  0
   -2.3234   -1.0355   -0.5600 C   0  0  0  0  0  0  0  0  0  0  0  0
   -3.5817   -0.4427   -0.7496 C   0  0  0  0  0  0  0  0  0  0  0  0
   -3.8865    0.8389   -0.2610 C   0  0  0  0  0  0  0  0  0  0  0  0
   -2.8628    1.4834    0.4549 C   0  0  0  0  0  0  0  0  0  0  0  0
   -1.6032    0.8986    0.6529 C   0  0  0  0  0  0  0  0  0  0  0  0
   -5.1448    1.4355   -0.4259 N   0  0  0  0  0  0  0  0  0  0  0  0
   -5.1667    2.8888   -0.6094 C   0  0  0  0  0  0  0  0  0  0  0  0
   -6.1881    0.7058   -1.1429 C   0  0  0  0  0  0  0  0  0  0  0  0
    6.1230    3.1013   -1.7176 H   0  0  0  0  0  0  0  0  0  0  0  0
    5.2500    1.7183   -2.3890 H   0  0  0  0  0  0  0  0  0  0  0  0
    4.4260    3.2829   -2.1025 H   0  0  0  0  0  0  0  0  0  0  0  0
    5.6228    2.1958    1.5960 H   0  0  0  0  0  0  0  0  0  0  0  0
    6.3359    0.9555    0.5184 H   0  0  0  0  0  0  0  0  0  0  0  0
    6.7418    2.6679    0.3368 H   0  0  0  0  0  0  0  0  0  0  0  0
    2.6318    2.0542   -1.9732 H   0  0  0  0  0  0  0  0  0  0  0  0
    0.6360    0.7223   -1.6809 H   0  0  0  0  0  0  0  0  0  0  0  0
    2.2229   -0.8655    1.9914 H   0  0  0  0  0  0  0  0  0  0  0  0
    4.2295    0.4439    1.7001 H   0  0  0  0  0  0  0  0  0  0  0  0
   -1.4637   -2.3247    2.2432 H   0  0  0  0  0  0  0  0  0  0  0  0
   -1.2970   -4.6913    2.9119 H   0  0  0  0  0  0  0  0  0  0  0  0
    0.3825   -6.1757    1.8478 H   0  0  0  0  0  0  0  0  0  0  0  0
    1.8979   -5.2777    0.0982 H   0  0  0  0  0  0  0  0  0  0  0  0
    1.7348   -2.9178   -0.5936 H   0  0  0  0  0  0  0  0  0  0  0  0
   -2.1415   -2.0240   -0.9733 H   0  0  0  0  0  0  0  0  0  0  0  0
   -4.3126   -1.0187   -1.3087 H   0  0  0  0  0  0  0  0  0  0  0  0
   -3.0293    2.4564    0.9065 H   0  0  0  0  0  0  0  0  0  0  0  0
   -0.8557    1.4447    1.2241 H   0  0  0  0  0  0  0  0  0  0  0  0
   -6.1819    3.2417   -0.8272 H   0  0  0  0  0  0  0  0  0  0  0  0
   -4.5273    3.1894   -1.4494 H   0  0  0  0  0  0  0  0  0  0  0  0
   -4.8539    3.4178    0.2977 H   0  0  0  0  0  0  0  0  0  0  0  0
   -6.3583   -0.2831   -0.7027 H   0  0  0  0  0  0  0  0  0  0  0  0
   -7.1457    1.2346   -1.0737 H   0  0  0  0  0  0  0  0  0  0  0  0
   -5.9389    0.6009   -2.2049 H   0  0  0  0  0  0  0  0  0  0  0  0
  2  3  1  0
  3  4  1  0
  3  5  1  0
  5  6  2  0
  6  7  1  0
  7  8  2  0
  8  9  1  0
  9 10  2  0
  8 11  1  0
 11 12  1  0
 12 13  2  0
 13 14  1  0
 14 15  2  0
 15 16  1  0
 16 17  2  0
 11 18  1  0
 18 19  2  0
 19 20  1  0
 20 21  2  0
 21 22  1  0
 22 23  2  0
 21 24  1  0
 24 25  1  0
 24 26  1  0
 10  5  1  0
 17 12  1  0
 23 18  1  0
  2 27  1  0
  2 28  1  0
  2 29  1  0
  4 30  1  0
  4 31  1  0
  4 32  1  0
  6 33  1  0
  7 34  1  0
  9 35  1  0
 10 36  1  0
 13 37  1  0
 14 38  1  0
 15 39  1  0
 16 40  1  0
 17 41  1  0
 19 42  1  0
 20 43  1  0
 22 44  1  0
 23 45  1  0
 25 46  1  0
 25 47  1  0
 25 48  1  0
 26 49  1  0
 26 50  1  0
 26 51  1  0
M  CHG  2   1  -1  11   1
M  END
$$$$
