OMPs000090
     RDKit          3D

 30 29  0  0  0  0  0  0  0  0999 V2000
   -4.4222   -0.5800   -1.0114 C   0  0  0  0  0  0  0  0  0  0  0  0
   -3.1912    0.0572   -0.3847 C   0  0  0  0  0  0  0  0  0  0  0  0
   -2.5146   -0.8927    0.6042 C   0  0  0  0  0  0  0  0  0  0  0  0
   -1.3356   -0.2587    1.3481 C   0  0  0  0  0  0  0  0  0  0  0  0
   -0.1571    0.0908    0.4353 C   0  0  0  0  0  0  0  0  0  0  0  0
    1.0339    0.6077    1.2470 C   0  0  0  0  0  0  0  0  0  0  0  0
    2.2008    1.0819    0.3773 C   0  0  0  0  0  0  0  0  0  0  0  0
    2.8521   -0.0421   -0.4216 C   0  0  0  0  0  0  0  0  0  0  0  0
    4.2879    0.5449   -1.3124 S   0  0  0  0  0  6  0  0  0  0  0  0
    5.3067    0.9160   -0.3505 O   0  0  0  0  0  0  0  0  0  0  0  0
    3.8538    1.4576   -2.3510 O   0  0  0  0  0  0  0  0  0  0  0  0
    4.7101   -0.8803   -1.9897 O   0  0  0  0  0  0  0  0  0  0  0  0
    3.7440   -1.3157   -2.9335 F   0  0  0  0  0  0  0  0  0  0  0  0
   -4.8895    0.1132   -1.7179 H   0  0  0  0  0  0  0  0  0  0  0  0
   -4.1575   -1.4925   -1.5551 H   0  0  0  0  0  0  0  0  0  0  0  0
   -5.1633   -0.8370   -0.2478 H   0  0  0  0  0  0  0  0  0  0  0  0
   -3.4858    0.9806    0.1269 H   0  0  0  0  0  0  0  0  0  0  0  0
   -2.4958    0.3339   -1.1842 H   0  0  0  0  0  0  0  0  0  0  0  0
   -3.2518   -1.2191    1.3484 H   0  0  0  0  0  0  0  0  0  0  0  0
   -2.1763   -1.7947    0.0796 H   0  0  0  0  0  0  0  0  0  0  0  0
   -1.6754    0.6407    1.8760 H   0  0  0  0  0  0  0  0  0  0  0  0
   -0.9962   -0.9657    2.1153 H   0  0  0  0  0  0  0  0  0  0  0  0
   -0.4568    0.8570   -0.2881 H   0  0  0  0  0  0  0  0  0  0  0  0
    0.1338   -0.8004   -0.1316 H   0  0  0  0  0  0  0  0  0  0  0  0
    0.7054    1.4506    1.8678 H   0  0  0  0  0  0  0  0  0  0  0  0
    1.3819   -0.1736    1.9336 H   0  0  0  0  0  0  0  0  0  0  0  0
    2.9507    1.5435    1.0315 H   0  0  0  0  0  0  0  0  0  0  0  0
    1.8587    1.8722   -0.3018 H   0  0  0  0  0  0  0  0  0  0  0  0
    2.1607   -0.4491   -1.1646 H   0  0  0  0  0  0  0  0  0  0  0  0
    3.1887   -0.8462    0.2403 H   0  0  0  0  0  0  0  0  0  0  0  0
  1  2  1  0
  2  3  1  0
  3  4  1  0
  4  5  1  0
  5  6  1  0
  6  7  1  0
  7  8  1  0
  8  9  1  0
  9 10  2  0
  9 11  2  0
  9 12  1  0
 12 13  1  0
  1 14  1  0
  1 15  1  0
  1 16  1  0
  2 17  1  0
  2 18  1  0
  3 19  1  0
  3 20  1  0
  4 21  1  0
  4 22  1  0
  5 23  1  0
  5 24  1  0
  6 25  1  0
  6 26  1  0
  7 27  1  0
  7 28  1  0
  8 29  1  0
  8 30  1  0
M  END
$$$$
