OMPs000178
     RDKit          3D

 27 28  0  0  0  0  0  0  0  0999 V2000
   -3.7342    0.3635    0.9496 N   0  0  0  0  0  0  0  0  0  0  0  0
   -2.5093    0.2814    0.1098 C   0  0  1  0  0  0  0  0  0  0  0  0
   -1.3015    0.9117    0.8213 C   0  0  0  0  0  0  0  0  0  0  0  0
   -0.0718    0.9747   -0.0322 C   0  0  0  0  0  0  0  0  0  0  0  0
    0.1732    1.8780   -1.0483 C   0  0  0  0  0  0  0  0  0  0  0  0
    1.3983    1.5951   -1.5893 N   0  0  0  0  0  0  0  0  0  0  0  0
    1.9712    0.5278   -0.9392 C   0  0  0  0  0  0  0  0  0  0  0  0
    3.2055   -0.0987   -1.1501 C   0  0  0  0  0  0  0  0  0  0  0  0
    3.5323   -1.1806   -0.3278 C   0  0  0  0  0  0  0  0  0  0  0  0
    2.6579   -1.6165    0.6643 C   0  0  0  0  0  0  0  0  0  0  0  0
    1.4274   -0.9789    0.8608 C   0  0  0  0  0  0  0  0  0  0  0  0
    1.0727    0.1160    0.0451 C   0  0  0  0  0  0  0  0  0  0  0  0
   -2.2310   -1.1845   -0.2288 C   0  0  0  0  0  0  0  0  0  0  0  0
   -2.1723   -1.9805    0.8664 O   0  0  0  0  0  0  0  0  0  0  0  0
   -2.0826   -1.6640   -1.3415 O   0  0  0  0  0  0  0  0  0  0  0  0
   -3.8305    1.3083    1.3167 H   0  0  0  0  0  0  0  0  0  0  0  0
   -3.6000   -0.2499    1.7570 H   0  0  0  0  0  0  0  0  0  0  0  0
   -2.7172    0.8043   -0.8309 H   0  0  0  0  0  0  0  0  0  0  0  0
   -1.5538    1.9364    1.1268 H   0  0  0  0  0  0  0  0  0  0  0  0
   -1.0782    0.3682    1.7483 H   0  0  0  0  0  0  0  0  0  0  0  0
   -0.4225    2.6930   -1.4379 H   0  0  0  0  0  0  0  0  0  0  0  0
    1.8263    2.0933   -2.3573 H   0  0  0  0  0  0  0  0  0  0  0  0
    3.8881    0.2373   -1.9236 H   0  0  0  0  0  0  0  0  0  0  0  0
    4.4835   -1.6892   -0.4668 H   0  0  0  0  0  0  0  0  0  0  0  0
    2.9315   -2.4601    1.2929 H   0  0  0  0  0  0  0  0  0  0  0  0
    0.7550   -1.3298    1.6379 H   0  0  0  0  0  0  0  0  0  0  0  0
   -2.0181   -2.8670    0.4768 H   0  0  0  0  0  0  0  0  0  0  0  0
  1  2  1  0
  2  3  1  0
  3  4  1  0
  4  5  2  0
  5  6  1  0
  6  7  1  0
  7  8  2  0
  8  9  1  0
  9 10  2  0
 10 11  1  0
 11 12  2  0
  2 13  1  0
 13 14  1  0
 13 15  2  0
 12  4  1  0
 12  7  1  0
  1 16  1  0
  1 17  1  0
  2 18  1  6
  3 19  1  0
  3 20  1  0
  5 21  1  0
  6 22  1  0
  8 23  1  0
  9 24  1  0
 10 25  1  0
 11 26  1  0
 14 27  1  0
M  END
$$$$
