OMPs000216
     RDKit          3D

 29 30  0  0  0  0  0  0  0  0999 V2000
    5.9807   -0.5013    0.0151 C   0  0  0  0  0  0  0  0  0  0  0  0
    5.1097    0.0684    0.9912 O   0  0  0  0  0  0  0  0  0  0  0  0
    3.8361    0.2794    0.5508 C   0  0  0  0  0  0  0  0  0  0  0  0
    3.4562    0.0075   -0.5833 O   0  0  0  0  0  0  0  0  0  0  0  0
    3.0936    0.8535    1.5603 N   0  0  0  0  0  0  0  0  0  0  0  0
    1.8638    0.6255    1.6675 N   0  0  0  0  0  0  0  0  0  0  0  0
    1.2179   -0.4055    1.0329 C   0  0  0  0  0  0  0  0  0  0  0  0
   -0.0497   -0.3294    0.5875 C   0  0  0  0  0  0  0  0  0  0  0  0
   -0.5312   -1.5510   -0.0891 C   0  0  0  0  0  0  0  0  0  0  0  0
   -1.7246   -1.6813   -0.6077 N   0  0  0  0  0  0  0  0  0  0  0  0
   -2.0492   -2.7773   -1.1758 O   0  0  0  0  0  0  0  0  0  0  0  0
   -2.6565   -0.5740   -0.5212 C   0  0  0  0  0  0  0  0  0  0  0  0
   -3.9430   -0.7062   -1.0632 C   0  0  0  0  0  0  0  0  0  0  0  0
   -4.8441    0.3521   -0.9686 C   0  0  0  0  0  0  0  0  0  0  0  0
   -4.4627    1.5329   -0.3353 C   0  0  0  0  0  0  0  0  0  0  0  0
   -3.1781    1.6587    0.2028 C   0  0  0  0  0  0  0  0  0  0  0  0
   -2.2529    0.6078    0.1165 C   0  0  0  0  0  0  0  0  0  0  0  0
   -0.9446    0.7264    0.6508 N   0  0  0  0  0  0  0  0  0  0  0  0
   -0.6322    1.8623    1.4036 O   0  0  0  0  0  0  0  0  0  0  0  0
    6.9663   -0.6263    0.4721 H   0  0  0  0  0  0  0  0  0  0  0  0
    6.0816    0.1664   -0.8463 H   0  0  0  0  0  0  0  0  0  0  0  0
    5.6171   -1.4856   -0.2964 H   0  0  0  0  0  0  0  0  0  0  0  0
    1.7802   -1.3292    0.9162 H   0  0  0  0  0  0  0  0  0  0  0  0
    0.1411   -2.4189   -0.1780 H   0  0  0  0  0  0  0  0  0  0  0  0
   -4.2458   -1.6287   -1.5549 H   0  0  0  0  0  0  0  0  0  0  0  0
   -5.8433    0.2547   -1.3860 H   0  0  0  0  0  0  0  0  0  0  0  0
   -5.1647    2.3595   -0.2573 H   0  0  0  0  0  0  0  0  0  0  0  0
   -2.9028    2.5892    0.6941 H   0  0  0  0  0  0  0  0  0  0  0  0
    0.2811    2.0705    1.1316 H   0  0  0  0  0  0  0  0  0  0  0  0
  1  2  1  0
  2  3  1  0
  3  4  2  0
  3  5  1  0
  5  6  2  3
  6  7  1  0
  7  8  2  3
  8  9  1  0
  9 10  2  0
 10 11  1  0
 10 12  1  0
 12 13  2  0
 13 14  1  0
 14 15  2  0
 15 16  1  0
 16 17  2  0
 17 18  1  0
 18 19  1  0
 18  8  1  0
 17 12  1  0
  1 20  1  0
  1 21  1  0
  1 22  1  0
  7 23  1  0
  9 24  1  0
 13 25  1  0
 14 26  1  0
 15 27  1  0
 16 28  1  0
 19 29  1  0
M  CHG  2  10   1  11  -1
M  END
$$$$
