OMPs000107
     RDKit          3D

 41 41  0  0  0  0  0  0  0  0999 V2000
    5.1844   -1.2332    0.2530 C   0  0  0  0  0  0  0  0  0  0  0  0
    5.0867   -0.1385   -0.8102 C   0  0  0  0  0  0  0  0  0  0  0  0
    5.4949    1.2211   -0.2367 C   0  0  0  0  0  0  0  0  0  0  0  0
    3.8159   -0.0801   -1.5427 N   0  0  0  0  0  0  0  0  0  0  0  0
    2.5749   -0.3729   -0.8147 C   0  0  0  0  0  0  0  0  0  0  0  0
    2.0852    0.7649    0.1035 C   0  0  0  0  0  0  0  0  0  0  0  0
    1.9855    1.9798   -0.6572 O   0  0  0  0  0  0  0  0  0  0  0  0
    0.7225    0.4484    0.7390 C   0  0  0  0  0  0  0  0  0  0  0  0
   -0.2409    0.2631   -0.3043 O   0  0  0  0  0  0  0  0  0  0  0  0
   -1.5080   -0.0831    0.0744 C   0  0  0  0  0  0  0  0  0  0  0  0
   -2.3775   -0.3590   -0.9830 C   0  0  0  0  0  0  0  0  0  0  0  0
   -3.7039   -0.7239   -0.7408 C   0  0  0  0  0  0  0  0  0  0  0  0
   -4.1816   -0.8130    0.5712 C   0  0  0  0  0  0  0  0  0  0  0  0
   -5.6168   -1.1949    0.8463 C   0  0  0  0  0  0  0  0  0  0  0  0
   -6.4284   -0.0797    1.4766 C   0  0  0  0  0  0  0  0  0  0  0  0
   -6.4978    1.0857    0.7662 N   0  0  0  0  0  0  0  0  0  0  0  0
   -7.0361   -0.2044    2.5351 O   0  0  0  0  0  0  0  0  0  0  0  0
   -3.3066   -0.5363    1.6302 C   0  0  0  0  0  0  0  0  0  0  0  0
   -1.9786   -0.1715    1.3836 C   0  0  0  0  0  0  0  0  0  0  0  0
    6.2092   -1.3035    0.6346 H   0  0  0  0  0  0  0  0  0  0  0  0
    4.5297   -1.0341    1.1078 H   0  0  0  0  0  0  0  0  0  0  0  0
    4.9247   -2.2117   -0.1650 H   0  0  0  0  0  0  0  0  0  0  0  0
    5.8399   -0.3800   -1.5714 H   0  0  0  0  0  0  0  0  0  0  0  0
    5.4579    2.0016   -1.0048 H   0  0  0  0  0  0  0  0  0  0  0  0
    6.5247    1.1819    0.1360 H   0  0  0  0  0  0  0  0  0  0  0  0
    4.8588    1.5316    0.5954 H   0  0  0  0  0  0  0  0  0  0  0  0
    3.7172    0.8456   -1.9681 H   0  0  0  0  0  0  0  0  0  0  0  0
    2.6367   -1.3197   -0.2683 H   0  0  0  0  0  0  0  0  0  0  0  0
    1.8212   -0.5344   -1.5954 H   0  0  0  0  0  0  0  0  0  0  0  0
    2.8024    0.9390    0.9096 H   0  0  0  0  0  0  0  0  0  0  0  0
    1.2274    1.8561   -1.2600 H   0  0  0  0  0  0  0  0  0  0  0  0
    0.4174    1.3000    1.3587 H   0  0  0  0  0  0  0  0  0  0  0  0
    0.8056   -0.4586    1.3494 H   0  0  0  0  0  0  0  0  0  0  0  0
   -2.0173   -0.2955   -2.0072 H   0  0  0  0  0  0  0  0  0  0  0  0
   -4.3546   -0.9401   -1.5855 H   0  0  0  0  0  0  0  0  0  0  0  0
   -5.6306   -2.0623    1.5173 H   0  0  0  0  0  0  0  0  0  0  0  0
   -6.1251   -1.5025   -0.0755 H   0  0  0  0  0  0  0  0  0  0  0  0
   -5.7676    1.3186    0.1050 H   0  0  0  0  0  0  0  0  0  0  0  0
   -6.9521    1.8584    1.2364 H   0  0  0  0  0  0  0  0  0  0  0  0
   -3.6553   -0.6016    2.6603 H   0  0  0  0  0  0  0  0  0  0  0  0
   -1.3438    0.0385    2.2381 H   0  0  0  0  0  0  0  0  0  0  0  0
  1  2  1  0
  2  3  1  0
  2  4  1  0
  4  5  1  0
  5  6  1  0
  6  7  1  0
  6  8  1  0
  8  9  1  0
  9 10  1  0
 10 11  2  0
 11 12  1  0
 12 13  2  0
 13 14  1  0
 14 15  1  0
 15 16  1  0
 15 17  2  0
 13 18  1  0
 18 19  2  0
 19 10  1  0
  1 20  1  0
  1 21  1  0
  1 22  1  0
  2 23  1  0
  3 24  1  0
  3 25  1  0
  3 26  1  0
  4 27  1  0
  5 28  1  0
  5 29  1  0
  6 30  1  0
  7 31  1  0
  8 32  1  0
  8 33  1  0
 11 34  1  0
 12 35  1  0
 14 36  1  0
 14 37  1  0
 16 38  1  0
 16 39  1  0
 18 40  1  0
 19 41  1  0
M  END
$$$$
