OMPs000126
     RDKit          3D

 20 19  0  0  0  0  0  0  0  0999 V2000
   -1.5264    0.8616   -2.6145 O   0  0  0  0  0  0  0  0  0  0  0  0
   -1.6196    0.0607   -1.4328 C   0  0  0  0  0  0  0  0  0  0  0  0
   -0.2789    0.1463   -0.6956 C   0  0  1  0  0  0  0  0  0  0  0  0
   -0.0227    1.5391   -0.4214 O   0  0  0  0  0  0  0  0  0  0  0  0
   -0.3138   -0.6039    0.6451 C   0  0  2  0  0  0  0  0  0  0  0  0
   -1.1037    0.1377    1.5890 O   0  0  0  0  0  0  0  0  0  0  0  0
    1.0782   -0.8843    1.2271 C   0  0  1  0  0  0  0  0  0  0  0  0
    1.7616   -1.8331    0.4058 O   0  0  0  0  0  0  0  0  0  0  0  0
    1.9193    0.3731    1.3890 C   0  0  0  0  0  0  0  0  0  0  0  0
    3.1081    0.4106    1.0707 O   0  0  0  0  0  0  0  0  0  0  0  0
   -2.3718    0.7621   -3.0884 H   0  0  0  0  0  0  0  0  0  0  0  0
   -1.8498   -0.9699   -1.7189 H   0  0  0  0  0  0  0  0  0  0  0  0
   -2.4350    0.4673   -0.8262 H   0  0  0  0  0  0  0  0  0  0  0  0
    0.5225   -0.2182   -1.3477 H   0  0  0  0  0  0  0  0  0  0  0  0
   -0.1626    1.9812   -1.2870 H   0  0  0  0  0  0  0  0  0  0  0  0
   -0.8092   -1.5709    0.4945 H   0  0  0  0  0  0  0  0  0  0  0  0
   -1.0196    1.0783    1.3231 H   0  0  0  0  0  0  0  0  0  0  0  0
    0.9756   -1.3152    2.2296 H   0  0  0  0  0  0  0  0  0  0  0  0
    2.7174   -1.6532    0.5270 H   0  0  0  0  0  0  0  0  0  0  0  0
    1.4304    1.2306    1.8808 H   0  0  0  0  0  0  0  0  0  0  0  0
  1  2  1  0
  2  3  1  0
  3  4  1  0
  3  5  1  0
  5  6  1  0
  5  7  1  0
  7  8  1  0
  7  9  1  0
  9 10  2  0
  1 11  1  0
  2 12  1  0
  2 13  1  0
  3 14  1  6
  4 15  1  0
  5 16  1  6
  6 17  1  0
  7 18  1  1
  8 19  1  0
  9 20  1  0
M  END
$$$$
