OMPs000098
     RDKit          3D

 15 15  0  0  0  0  0  0  0  0999 V2000
    2.9840   -0.0679    0.0319 O   0  0  0  0  0  0  0  0  0  0  0  0
    1.9553    0.6066   -0.0874 N   0  0  0  0  0  0  0  0  0  0  0  0
    0.9984    0.1334    0.6823 N   0  0  0  0  0  0  0  0  0  0  0  0
   -0.1550    1.0420    0.7842 C   0  0  0  0  0  0  0  0  0  0  0  0
   -1.0728    0.6945   -0.3815 C   0  0  0  0  0  0  0  0  0  0  0  0
   -0.7011   -0.7307   -0.7668 C   0  0  0  0  0  0  0  0  0  0  0  0
    0.4004   -1.1293    0.2075 C   0  0  0  0  0  0  0  0  0  0  0  0
   -0.6749    0.8388    1.7296 H   0  0  0  0  0  0  0  0  0  0  0  0
    0.1142    2.1055    0.7994 H   0  0  0  0  0  0  0  0  0  0  0  0
   -2.1272    0.7756   -0.0986 H   0  0  0  0  0  0  0  0  0  0  0  0
   -0.8984    1.3669   -1.2294 H   0  0  0  0  0  0  0  0  0  0  0  0
   -0.3336   -0.7528   -1.7993 H   0  0  0  0  0  0  0  0  0  0  0  0
   -1.5598   -1.4062   -0.7000 H   0  0  0  0  0  0  0  0  0  0  0  0
    1.1148   -1.8308   -0.2402 H   0  0  0  0  0  0  0  0  0  0  0  0
   -0.0442   -1.6457    1.0684 H   0  0  0  0  0  0  0  0  0  0  0  0
  1  2  2  0
  2  3  1  0
  3  4  1  0
  4  5  1  0
  5  6  1  0
  6  7  1  0
  7  3  1  0
  4  8  1  0
  4  9  1  0
  5 10  1  0
  5 11  1  0
  6 12  1  0
  6 13  1  0
  7 14  1  0
  7 15  1  0
M  END
$$$$
