OMPs000190
     RDKit          3D

 39 39  0  0  0  0  0  0  0  0999 V2000
    3.1815    0.8386   -2.6215 C   0  0  0  0  0  0  0  0  0  0  0  0
    2.9207    1.3183   -1.1972 C   0  0  0  0  0  0  0  0  0  0  0  0
    1.9051    0.5226   -0.4884 N   0  0  0  0  0  0  0  0  0  0  0  0
    2.2528   -0.9074   -0.3470 C   0  0  0  0  0  0  0  0  0  0  0  0
    3.5917   -1.2384    0.3085 C   0  0  0  0  0  0  0  0  0  0  0  0
    1.6036    1.1516    0.8290 C   0  0  0  0  0  0  0  0  0  0  0  0
    0.2613    0.6473    1.3814 C   0  0  0  0  0  0  0  0  0  0  0  0
    0.1182    0.4004    2.5734 O   0  0  0  0  0  0  0  0  0  0  0  0
   -0.6821    0.5302    0.3721 N   0  0  0  0  0  0  0  0  0  0  0  0
   -2.0089    0.0545    0.4753 C   0  0  0  0  0  0  0  0  0  0  0  0
   -2.5007   -0.7210   -0.6070 C   0  0  0  0  0  0  0  0  0  0  0  0
   -1.6639   -1.0360   -1.8212 C   0  0  0  0  0  0  0  0  0  0  0  0
   -3.7978   -1.2574   -0.5501 C   0  0  0  0  0  0  0  0  0  0  0  0
   -4.6138   -1.0225    0.5488 C   0  0  0  0  0  0  0  0  0  0  0  0
   -4.1539   -0.2223    1.5878 C   0  0  0  0  0  0  0  0  0  0  0  0
   -2.8679    0.3519    1.5552 C   0  0  0  0  0  0  0  0  0  0  0  0
   -2.5311    1.2924    2.6806 C   0  0  0  0  0  0  0  0  0  0  0  0
    3.8272    1.5534   -3.1427 H   0  0  0  0  0  0  0  0  0  0  0  0
    3.6869   -0.1318   -2.6385 H   0  0  0  0  0  0  0  0  0  0  0  0
    2.2480    0.7562   -3.1881 H   0  0  0  0  0  0  0  0  0  0  0  0
    3.8638    1.3577   -0.6392 H   0  0  0  0  0  0  0  0  0  0  0  0
    2.5620    2.3524   -1.2763 H   0  0  0  0  0  0  0  0  0  0  0  0
    1.4617   -1.4241    0.2101 H   0  0  0  0  0  0  0  0  0  0  0  0
    2.2268   -1.3721   -1.3402 H   0  0  0  0  0  0  0  0  0  0  0  0
    3.6613   -0.8449    1.3261 H   0  0  0  0  0  0  0  0  0  0  0  0
    4.4352   -0.8544   -0.2719 H   0  0  0  0  0  0  0  0  0  0  0  0
    3.7093   -2.3257    0.3694 H   0  0  0  0  0  0  0  0  0  0  0  0
    2.3952    0.9723    1.5624 H   0  0  0  0  0  0  0  0  0  0  0  0
    1.4871    2.2374    0.7201 H   0  0  0  0  0  0  0  0  0  0  0  0
   -0.2252    0.4541   -0.5334 H   0  0  0  0  0  0  0  0  0  0  0  0
   -2.2190   -1.6355   -2.5512 H   0  0  0  0  0  0  0  0  0  0  0  0
   -0.7773   -1.6113   -1.5341 H   0  0  0  0  0  0  0  0  0  0  0  0
   -1.3604   -0.1129   -2.3266 H   0  0  0  0  0  0  0  0  0  0  0  0
   -4.1773   -1.8719   -1.3633 H   0  0  0  0  0  0  0  0  0  0  0  0
   -5.6124   -1.4477    0.5908 H   0  0  0  0  0  0  0  0  0  0  0  0
   -4.8168   -0.0237    2.4283 H   0  0  0  0  0  0  0  0  0  0  0  0
   -2.1117    0.7423    3.5277 H   0  0  0  0  0  0  0  0  0  0  0  0
   -1.8466    2.0824    2.3585 H   0  0  0  0  0  0  0  0  0  0  0  0
   -3.4325    1.8089    3.0325 H   0  0  0  0  0  0  0  0  0  0  0  0
  1  2  1  0
  2  3  1  0
  3  4  1  0
  4  5  1  0
  3  6  1  0
  6  7  1  0
  7  8  2  0
  7  9  1  0
  9 10  1  0
 10 11  2  0
 11 12  1  0
 11 13  1  0
 13 14  2  0
 14 15  1  0
 15 16  2  0
 16 17  1  0
 16 10  1  0
  1 18  1  0
  1 19  1  0
  1 20  1  0
  2 21  1  0
  2 22  1  0
  4 23  1  0
  4 24  1  0
  5 25  1  0
  5 26  1  0
  5 27  1  0
  6 28  1  0
  6 29  1  0
  9 30  1  0
 12 31  1  0
 12 32  1  0
 12 33  1  0
 13 34  1  0
 14 35  1  0
 15 36  1  0
 17 37  1  0
 17 38  1  0
 17 39  1  0
M  END
$$$$
