OMPs000071
     RDKit          3D

 44 47  0  0  0  0  0  0  0  0999 V2000
   -2.1820   -1.6676   -0.9134 C   0  0  0  0  0  0  0  0  0  0  0  0
   -2.2732   -0.1891   -0.4570 C   0  0  2  0  0  0  0  0  0  0  0  0
   -1.7429    0.7195   -1.5729 C   0  0  0  0  0  0  0  0  0  0  0  0
   -0.2187    0.5794   -1.7511 C   0  0  0  0  0  0  0  0  0  0  0  0
    0.5797    0.7490   -0.4305 C   0  0  1  0  0  0  0  0  0  0  0  0
   -0.0031   -0.1516    0.7003 C   0  0  1  0  0  0  0  0  0  0  0  0
    0.7666    0.1157    1.9950 C   0  0  0  0  0  0  0  0  0  0  0  0
    2.2174   -0.3289    1.8358 C   0  0  0  0  0  0  0  0  0  0  0  0
    2.8530    0.0981    0.5339 C   0  0  0  0  0  0  0  0  0  0  0  0
    4.2490   -0.0324    0.4131 C   0  0  0  0  0  0  0  0  0  0  0  0
    4.8855    0.3279   -0.7679 C   0  0  0  0  0  0  0  0  0  0  0  0
    6.2363    0.2173   -0.9128 O   0  0  0  0  0  0  0  0  0  0  0  0
    4.1569    0.8184   -1.8380 C   0  0  0  0  0  0  0  0  0  0  0  0
    2.7702    0.9438   -1.7324 C   0  0  0  0  0  0  0  0  0  0  0  0
    2.0906    0.5674   -0.5596 C   0  0  0  0  0  0  0  0  0  0  0  0
   -1.4979    0.1381    0.8351 C   0  0  2  0  0  0  0  0  0  0  0  0
   -2.3015   -0.5713    1.9211 C   0  0  0  0  0  0  0  0  0  0  0  0
   -3.7606   -0.4474    1.4457 C   0  0  0  0  0  0  0  0  0  0  0  0
   -3.7021    0.1361    0.0208 C   0  0  2  0  0  0  0  0  0  0  0  0
   -4.7171   -0.4183   -0.7930 O   0  0  0  0  0  0  0  0  0  0  0  0
   -2.7593   -1.8235   -1.8322 H   0  0  0  0  0  0  0  0  0  0  0  0
   -2.5769   -2.3617   -0.1649 H   0  0  0  0  0  0  0  0  0  0  0  0
   -1.1574   -1.9815   -1.1289 H   0  0  0  0  0  0  0  0  0  0  0  0
   -2.2457    0.5017   -2.5228 H   0  0  0  0  0  0  0  0  0  0  0  0
   -1.9682    1.7683   -1.3393 H   0  0  0  0  0  0  0  0  0  0  0  0
    0.0889    1.3386   -2.4794 H   0  0  0  0  0  0  0  0  0  0  0  0
    0.0172   -0.3907   -2.2048 H   0  0  0  0  0  0  0  0  0  0  0  0
    0.4458    1.7976   -0.1222 H   0  0  0  0  0  0  0  0  0  0  0  0
    0.1438   -1.2083    0.4422 H   0  0  0  0  0  0  0  0  0  0  0  0
    0.3230   -0.4229    2.8398 H   0  0  0  0  0  0  0  0  0  0  0  0
    0.7281    1.1845    2.2421 H   0  0  0  0  0  0  0  0  0  0  0  0
    2.2628   -1.4244    1.8876 H   0  0  0  0  0  0  0  0  0  0  0  0
    2.7983    0.0644    2.6788 H   0  0  0  0  0  0  0  0  0  0  0  0
    4.8236   -0.4151    1.2518 H   0  0  0  0  0  0  0  0  0  0  0  0
    6.6059   -0.1401   -0.0892 H   0  0  0  0  0  0  0  0  0  0  0  0
    4.6637    1.1079   -2.7540 H   0  0  0  0  0  0  0  0  0  0  0  0
    2.2373    1.3496   -2.5872 H   0  0  0  0  0  0  0  0  0  0  0  0
   -1.5970    1.2174    1.0402 H   0  0  0  0  0  0  0  0  0  0  0  0
   -2.0161   -1.6255    2.0089 H   0  0  0  0  0  0  0  0  0  0  0  0
   -2.1632   -0.1076    2.9031 H   0  0  0  0  0  0  0  0  0  0  0  0
   -4.2627   -1.4210    1.4734 H   0  0  0  0  0  0  0  0  0  0  0  0
   -4.3284    0.2215    2.1022 H   0  0  0  0  0  0  0  0  0  0  0  0
   -3.8629    1.2206    0.0703 H   0  0  0  0  0  0  0  0  0  0  0  0
   -4.6066   -0.0539   -1.6876 H   0  0  0  0  0  0  0  0  0  0  0  0
  2  1  1  6
  2  3  1  0
  3  4  1  0
  4  5  1  0
  5  6  1  0
  6  7  1  0
  7  8  1  0
  8  9  1  0
  9 10  2  0
 10 11  1  0
 11 12  1  0
 11 13  2  0
 13 14  1  0
 14 15  2  0
  6 16  1  0
 16 17  1  0
 17 18  1  0
 18 19  1  0
 19 20  1  0
 16  2  1  0
 19  2  1  0
 15  5  1  0
 15  9  1  0
  1 21  1  0
  1 22  1  0
  1 23  1  0
  3 24  1  0
  3 25  1  0
  4 26  1  0
  4 27  1  0
  5 28  1  1
  6 29  1  6
  7 30  1  0
  7 31  1  0
  8 32  1  0
  8 33  1  0
 10 34  1  0
 12 35  1  0
 13 36  1  0
 14 37  1  0
 16 38  1  1
 17 39  1  0
 17 40  1  0
 18 41  1  0
 18 42  1  0
 19 43  1  1
 20 44  1  0
M  END
$$$$
