OMPs000012
     RDKit          3D

  8  7  0  0  0  0  0  0  0  0999 V2000
   -0.9454   -0.1587    0.0962 C   0  0  0  0  0  0  0  0  0  0  0  0
    0.4577    0.3372   -0.0227 C   0  0  0  0  0  0  0  0  0  0  0  0
    1.3399   -0.6603   -0.2173 O   0  0  0  0  0  0  0  0  0  0  0  0
    0.8253    1.4974    0.0404 O   0  0  0  0  0  0  0  0  0  0  0  0
   -1.2371   -0.6695   -0.8248 H   0  0  0  0  0  0  0  0  0  0  0  0
   -1.6169    0.6903    0.2525 H   0  0  0  0  0  0  0  0  0  0  0  0
   -1.0290   -0.8322    0.9526 H   0  0  0  0  0  0  0  0  0  0  0  0
    2.2055   -0.2042   -0.2769 H   0  0  0  0  0  0  0  0  0  0  0  0
  1  2  1  0
  2  3  1  0
  2  4  2  0
  1  5  1  0
  1  6  1  0
  1  7  1  0
  3  8  1  0
M  END
$$$$
