OMPs000073
     RDKit          3D

  6  5  0  0  0  0  0  0  0  0999 V2000
   -1.9576   -0.2334   -0.8771 Cl  0  0  0  0  0  0  0  0  0  0  0  0
   -0.5776   -0.3840    0.1294 C   0  0  0  0  0  0  0  0  0  0  0  0
    0.5700    0.2844   -0.0112 C   0  0  0  0  0  0  0  0  0  0  0  0
    0.8510    1.4372   -1.2643 Cl  0  0  0  0  0  0  0  0  0  0  0  0
    1.8618    0.0019    1.1054 Cl  0  0  0  0  0  0  0  0  0  0  0  0
   -0.7476   -1.1061    0.9178 H   0  0  0  0  0  0  0  0  0  0  0  0
  1  2  1  0
  2  3  2  3
  3  4  1  0
  3  5  1  0
  2  6  1  0
M  END
$$$$
