OMPs000054
     RDKit          3D

 39 37  0  0  0  0  0  0  0  0999 V2000
    0.0000    0.0000    0.0000 H   0  0  0  0  0 15  0  0  0  0  0  0
    0.0000    0.0000    0.0000 Cl  0  0  0  0  0  0  0  0  0  0  0  0
   -4.7104    1.4029    0.6341 C   0  0  0  0  0  0  0  0  0  0  0  0
   -3.9570    0.5085   -0.3220 C   0  0  0  0  0  0  0  0  0  0  0  0
   -2.5004    0.5915   -0.0353 N   0  0  0  0  0  0  0  0  0  0  0  0
   -1.9385   -0.2643   -1.1052 C   0  0  0  0  0  0  0  0  0  0  0  0
   -2.2635   -1.7082   -0.9824 C   0  0  0  0  0  0  0  0  0  0  0  0
   -2.2192    0.1097    1.2785 C   0  0  0  0  0  0  0  0  0  0  0  0
   -0.9112    0.4602    1.8647 C   0  0  0  0  0  0  0  0  0  0  0  0
    0.2795    0.1587    1.3522 O   0  0  0  0  0  0  0  0  0  0  0  0
    1.1214   -0.7496    0.9442 C   0  0  0  0  0  0  0  0  0  0  0  0
    0.7679   -1.9812    1.0039 O   0  0  0  0  0  0  0  0  0  0  0  0
    2.4524   -0.3972    0.4314 C   0  0  0  0  0  0  0  0  0  0  0  0
    3.3569   -1.3585   -0.0054 C   0  0  0  0  0  0  0  0  0  0  0  0
    4.6115   -1.0175   -0.4692 C   0  0  0  0  0  0  0  0  0  0  0  0
    5.0318    0.2923   -0.5226 C   0  0  0  0  0  0  0  0  0  0  0  0
    6.3365    0.5738   -0.9999 N   0  0  0  0  0  0  0  0  0  0  0  0
    4.1422    1.2492   -0.0924 C   0  0  0  0  0  0  0  0  0  0  0  0
    2.8812    0.9092    0.3738 C   0  0  0  0  0  0  0  0  0  0  0  0
   -5.1737    0.7621    1.4100 H   0  0  0  0  0  0  0  0  0  0  0  0
   -4.0630    2.1654    1.0717 H   0  0  0  0  0  0  0  0  0  0  0  0
   -5.5759    1.8850    0.0834 H   0  0  0  0  0  0  0  0  0  0  0  0
   -4.2766   -0.5365   -0.1805 H   0  0  0  0  0  0  0  0  0  0  0  0
   -4.2097    0.7943   -1.3351 H   0  0  0  0  0  0  0  0  0  0  0  0
   -0.8338   -0.1451   -1.1945 H   0  0  0  0  0  0  0  0  0  0  0  0
   -2.3817    0.0872   -2.0860 H   0  0  0  0  0  0  0  0  0  0  0  0
   -2.8528   -2.0763   -1.8842 H   0  0  0  0  0  0  0  0  0  0  0  0
   -2.9086   -1.9856   -0.1345 H   0  0  0  0  0  0  0  0  0  0  0  0
   -1.3503   -2.3640   -1.0297 H   0  0  0  0  0  0  0  0  0  0  0  0
   -2.5186   -0.9418    1.4868 H   0  0  0  0  0  0  0  0  0  0  0  0
   -2.9725    0.6710    1.9343 H   0  0  0  0  0  0  0  0  0  0  0  0
   -1.0159    0.1896    2.9788 H   0  0  0  0  0  0  0  0  0  0  0  0
   -0.9392    1.5991    1.9541 H   0  0  0  0  0  0  0  0  0  0  0  0
    3.0432   -2.4052    0.0279 H   0  0  0  0  0  0  0  0  0  0  0  0
    5.2912   -1.7682   -0.8046 H   0  0  0  0  0  0  0  0  0  0  0  0
    6.7109    0.0425   -1.8047 H   0  0  0  0  0  0  0  0  0  0  0  0
    6.9576    1.3028   -0.5798 H   0  0  0  0  0  0  0  0  0  0  0  0
    4.4093    2.2733   -0.1052 H   0  0  0  0  0  0  0  0  0  0  0  0
    2.1791    1.6709    0.7169 H   0  0  0  0  0  0  0  0  0  0  0  0
  3  4  1  0
  4  5  1  0
  5  6  1  0
  6  7  1  0
  5  8  1  0
  8  9  1  0
  9 10  1  0
 10 11  1  0
 11 12  2  0
 11 13  1  0
 13 14  2  0
 14 15  1  0
 15 16  2  0
 16 17  1  0
 16 18  1  0
 18 19  2  0
 19 13  1  0
  3 20  1  0
  3 21  1  0
  3 22  1  0
  4 23  1  0
  4 24  1  0
  6 25  1  0
  6 26  1  0
  7 27  1  0
  7 28  1  0
  7 29  1  0
  8 30  1  0
  8 31  1  0
  9 32  1  0
  9 33  1  0
 14 34  1  0
 15 35  1  0
 17 36  1  0
 17 37  1  0
 18 38  1  0
 19 39  1  0
M  CHG  2   1   1   2  -1
M  END
$$$$
