OMPs000217
     RDKit          3D

 27 28  0  0  0  0  0  0  0  0999 V2000
   -5.8062    0.6399    0.3510 C   0  0  0  0  0  0  0  0  0  0  0  0
   -4.5173   -0.0879    0.4561 C   0  0  0  0  0  0  0  0  0  0  0  0
   -3.0199    0.7531    0.3617 S   0  0  0  0  0  0  0  0  0  0  0  0
   -2.2580   -0.7674    0.5091 C   0  0  0  0  0  0  0  0  0  0  0  0
   -0.8201   -0.9676    0.5969 N   0  0  0  0  0  0  0  0  0  0  0  0
   -0.1240   -1.0186   -0.9439 S   0  0  0  0  0  6  0  0  0  0  0  0
   -0.7840   -0.1012   -1.8461 O   0  0  0  0  0  0  0  0  0  0  0  0
    0.0559   -2.4172   -1.2684 O   0  0  0  0  0  0  0  0  0  0  0  0
    1.4773   -0.3327   -0.5901 C   0  0  0  0  0  0  0  0  0  0  0  0
    2.5948   -1.1642   -0.5054 C   0  0  0  0  0  0  0  0  0  0  0  0
    3.8455   -0.6042   -0.2305 C   0  0  0  0  0  0  0  0  0  0  0  0
    3.9965    0.7795   -0.0893 C   0  0  0  0  0  0  0  0  0  0  0  0
    5.2270    1.3151    0.3055 N   0  0  0  0  0  0  0  0  0  0  0  0
    2.8581    1.5913   -0.1316 C   0  0  0  0  0  0  0  0  0  0  0  0
    1.6014    1.0461   -0.4057 C   0  0  0  0  0  0  0  0  0  0  0  0
   -3.0708   -1.7800    0.6906 N   0  0  0  0  0  0  0  0  0  0  0  0
   -4.3945   -1.3874    0.6366 N   0  0  0  0  0  0  0  0  0  0  0  0
   -5.8845    1.1571   -0.6105 H   0  0  0  0  0  0  0  0  0  0  0  0
   -5.9047    1.3759    1.1551 H   0  0  0  0  0  0  0  0  0  0  0  0
   -6.6470   -0.0570    0.4275 H   0  0  0  0  0  0  0  0  0  0  0  0
   -0.6830   -1.8933    1.0080 H   0  0  0  0  0  0  0  0  0  0  0  0
    2.5072   -2.2398   -0.6390 H   0  0  0  0  0  0  0  0  0  0  0  0
    4.7072   -1.2600   -0.1314 H   0  0  0  0  0  0  0  0  0  0  0  0
    5.3392    2.2998    0.0843 H   0  0  0  0  0  0  0  0  0  0  0  0
    6.0294    0.7641    0.0161 H   0  0  0  0  0  0  0  0  0  0  0  0
    2.9432    2.6607    0.0452 H   0  0  0  0  0  0  0  0  0  0  0  0
    0.7314    1.6961   -0.4624 H   0  0  0  0  0  0  0  0  0  0  0  0
  1  2  1  0
  2  3  1  0
  3  4  1  0
  4  5  1  0
  5  6  1  0
  6  7  2  0
  6  8  2  0
  6  9  1  0
  9 10  2  0
 10 11  1  0
 11 12  2  0
 12 13  1  0
 12 14  1  0
 14 15  2  0
  4 16  2  0
 16 17  1  0
 17  2  2  0
 15  9  1  0
  1 18  1  0
  1 19  1  0
  1 20  1  0
  5 21  1  0
 10 22  1  0
 11 23  1  0
 13 24  1  0
 13 25  1  0
 14 26  1  0
 15 27  1  0
M  END
$$$$
