OMPs000048
     RDKit          3D

 40 41  0  0  0  0  0  0  0  0999 V2000
    0.0303    0.3967    0.0000 O   0  0  0  0  0  0  0  0  0  0  0  0
   -2.9961   -2.4550    0.2506 C   0  0  0  0  0  0  0  0  0  0  0  0
   -2.6181   -1.1299   -0.4121 C   0  0  0  0  0  0  0  0  0  0  0  0
   -3.2891   -1.0383   -1.7831 C   0  0  0  0  0  0  0  0  0  0  0  0
   -3.0983   -0.0759    0.4302 O   0  0  0  0  0  0  0  0  0  0  0  0
   -2.3409    1.1209    0.2750 C   0  0  0  0  0  0  0  0  0  0  0  0
   -0.9146    0.8841    0.7520 C   0  0  2  0  0  0  0  0  0  0  0  0
   -0.0102    1.7488    0.0447 O   0  0  0  0  0  0  0  0  0  0  0  0
    1.0288    0.9382   -0.5202 C   0  0  1  0  0  0  0  0  0  0  0  0
    2.2999    1.4640   -0.1546 O   0  0  0  0  0  0  0  0  0  0  0  0
    2.7233    0.7293    0.9939 C   0  0  0  0  0  0  0  0  0  0  0  0
    4.0646    0.0743    0.6825 C   0  0  0  0  0  0  0  0  0  0  0  0
    2.8391    1.6804    2.1776 C   0  0  0  0  0  0  0  0  0  0  0  0
    1.7705   -0.2896    1.3218 O   0  0  0  0  0  0  0  0  0  0  0  0
    0.9619   -0.4197    0.1467 C   0  0  1  0  0  0  0  0  0  0  0  0
   -0.4968   -0.5611    0.4997 C   0  0  2  0  0  0  0  0  0  0  0  0
   -1.2003   -1.0941   -0.6233 O   0  0  0  0  0  0  0  0  0  0  0  0
    0.8776    0.7873   -2.0538 C   0  0  0  0  0  0  0  0  0  0  0  0
    1.9192    0.1499   -2.6406 O   0  0  0  0  0  0  0  0  0  0  0  0
   -0.0536    1.1741   -2.7460 O   0  0  0  0  0  0  0  0  0  0  0  0
   -0.7764   -0.1402    0.0000 H   0  0  0  0  0  0  0  0  0  0  0  0
    0.7461   -0.2564    0.0000 H   0  0  0  0  0  0  0  0  0  0  0  0
   -2.5626   -2.5285    1.2540 H   0  0  0  0  0  0  0  0  0  0  0  0
   -4.0814   -2.5443    0.3689 H   0  0  0  0  0  0  0  0  0  0  0  0
   -2.6250   -3.3091   -0.3257 H   0  0  0  0  0  0  0  0  0  0  0  0
   -2.9938   -0.1213   -2.3044 H   0  0  0  0  0  0  0  0  0  0  0  0
   -4.3803   -1.0227   -1.6923 H   0  0  0  0  0  0  0  0  0  0  0  0
   -2.9928   -1.8740   -2.4263 H   0  0  0  0  0  0  0  0  0  0  0  0
   -2.3792    1.4707   -0.7631 H   0  0  0  0  0  0  0  0  0  0  0  0
   -2.8090    1.9042    0.8807 H   0  0  0  0  0  0  0  0  0  0  0  0
   -0.8166    1.1180    1.8186 H   0  0  0  0  0  0  0  0  0  0  0  0
    3.9727   -0.6034   -0.1741 H   0  0  0  0  0  0  0  0  0  0  0  0
    4.8213    0.8217    0.4218 H   0  0  0  0  0  0  0  0  0  0  0  0
    4.4224   -0.5214    1.5288 H   0  0  0  0  0  0  0  0  0  0  0  0
    3.1538    1.1525    3.0839 H   0  0  0  0  0  0  0  0  0  0  0  0
    1.8689    2.1423    2.3937 H   0  0  0  0  0  0  0  0  0  0  0  0
    3.5440    2.4920    1.9695 H   0  0  0  0  0  0  0  0  0  0  0  0
    1.3516   -1.2448   -0.4589 H   0  0  0  0  0  0  0  0  0  0  0  0
   -0.6568   -1.1947    1.3787 H   0  0  0  0  0  0  0  0  0  0  0  0
    1.6960    0.1748   -3.5951 H   0  0  0  0  0  0  0  0  0  0  0  0
  2  3  1  0
  3  4  1  0
  3  5  1  0
  5  6  1  0
  6  7  1  0
  7  8  1  0
  8  9  1  0
  9 10  1  0
 10 11  1  0
 11 12  1  0
 11 13  1  0
 11 14  1  0
 14 15  1  0
 15 16  1  0
 16 17  1  0
  9 18  1  6
 18 19  1  0
 18 20  2  0
 17  3  1  0
 16  7  1  0
 15  9  1  0
  1 21  1  0
  1 22  1  0
  2 23  1  0
  2 24  1  0
  2 25  1  0
  4 26  1  0
  4 27  1  0
  4 28  1  0
  6 29  1  0
  6 30  1  0
  7 31  1  1
 12 32  1  0
 12 33  1  0
 12 34  1  0
 13 35  1  0
 13 36  1  0
 13 37  1  0
 15 38  1  6
 16 39  1  1
 19 40  1  0
M  END
$$$$
