OMPs000172
     RDKit          3D

 24 24  0  0  0  0  0  0  0  0999 V2000
   -2.9680   -2.3418    0.2466 C   0  0  0  0  0  0  0  0  0  0  0  0
   -2.4305   -1.0192    0.2328 O   0  0  0  0  0  0  0  0  0  0  0  0
   -1.2325   -0.9293   -0.3940 C   0  0  0  0  0  0  0  0  0  0  0  0
   -0.6283   -1.8205   -0.9651 O   0  0  0  0  0  0  0  0  0  0  0  0
   -0.7471    0.4594   -0.3024 C   0  0  0  0  0  0  0  0  0  0  0  0
   -1.5851    1.5097   -0.7055 C   0  0  0  0  0  0  0  0  0  0  0  0
   -1.1082    2.8222   -0.7070 C   0  0  0  0  0  0  0  0  0  0  0  0
    0.2033    3.0908   -0.3138 C   0  0  0  0  0  0  0  0  0  0  0  0
    1.0404    2.0491    0.0912 C   0  0  0  0  0  0  0  0  0  0  0  0
    0.5652    0.7292    0.0972 C   0  0  0  0  0  0  0  0  0  0  0  0
    1.4280   -0.3481    0.6145 C   0  0  0  0  0  0  0  0  0  0  0  0
    1.0810   -1.1375    1.4757 O   0  0  0  0  0  0  0  0  0  0  0  0
    2.6302   -0.2862   -0.0075 O   0  0  0  0  0  0  0  0  0  0  0  0
    3.5289   -1.3234    0.3861 C   0  0  0  0  0  0  0  0  0  0  0  0
   -3.9120   -2.3182    0.7979 H   0  0  0  0  0  0  0  0  0  0  0  0
   -2.2861   -3.0293    0.7571 H   0  0  0  0  0  0  0  0  0  0  0  0
   -3.1707   -2.6825   -0.7736 H   0  0  0  0  0  0  0  0  0  0  0  0
   -2.6031    1.3074   -1.0315 H   0  0  0  0  0  0  0  0  0  0  0  0
   -1.7584    3.6358   -1.0216 H   0  0  0  0  0  0  0  0  0  0  0  0
    0.5723    4.1143   -0.3164 H   0  0  0  0  0  0  0  0  0  0  0  0
    2.0556    2.2699    0.4140 H   0  0  0  0  0  0  0  0  0  0  0  0
    3.7705   -1.2364    1.4501 H   0  0  0  0  0  0  0  0  0  0  0  0
    4.4518   -1.2086   -0.1891 H   0  0  0  0  0  0  0  0  0  0  0  0
    3.1027   -2.3070    0.1641 H   0  0  0  0  0  0  0  0  0  0  0  0
  1  2  1  0
  2  3  1  0
  3  4  2  0
  3  5  1  0
  5  6  2  0
  6  7  1  0
  7  8  2  0
  8  9  1  0
  9 10  2  0
 10 11  1  0
 11 12  2  0
 11 13  1  0
 13 14  1  0
 10  5  1  0
  1 15  1  0
  1 16  1  0
  1 17  1  0
  6 18  1  0
  7 19  1  0
  8 20  1  0
  9 21  1  0
 14 22  1  0
 14 23  1  0
 14 24  1  0
M  END
$$$$
