OMPs000205
     RDKit          3D

 42 42  0  0  0  0  0  0  0  0999 V2000
   -1.9715   -0.8422    2.7725 C   0  0  0  0  0  0  0  0  0  0  0  0
   -2.9799   -0.1634    1.9761 N   0  0  0  0  0  0  0  0  0  0  0  0
   -3.1041   -0.2295    0.5972 C   0  0  0  0  0  0  0  0  0  0  0  0
   -1.9191   -0.3606   -0.1194 N   0  0  0  0  0  0  0  0  0  0  0  0
   -1.6404    0.1947   -1.4484 C   0  0  0  0  0  0  0  0  0  0  0  0
   -1.4021    1.7089   -1.3668 C   0  0  0  0  0  0  0  0  0  0  0  0
   -0.6905    2.3751   -2.9128 S   0  0  0  0  0  0  0  0  0  0  0  0
    1.0685    2.4671   -2.4268 C   0  0  0  0  0  0  0  0  0  0  0  0
    1.6660    1.1187   -2.1905 C   0  0  0  0  0  0  0  0  0  0  0  0
    2.2862    0.3158   -3.1300 C   0  0  0  0  0  0  0  0  0  0  0  0
    2.7836   -1.1580   -2.4172 S   0  0  0  0  0  0  0  0  0  0  0  0
    2.1567   -0.6294   -0.9012 C   0  0  0  0  0  0  0  0  0  0  0  0
    2.2161   -1.5374    0.3073 C   0  0  0  0  0  0  0  0  0  0  0  0
    3.1942   -1.1826    1.3566 N   0  0  0  0  0  0  0  0  0  0  0  0
    4.5748   -1.2349    0.8832 C   0  0  0  0  0  0  0  0  0  0  0  0
    2.8978    0.1014    1.9862 C   0  0  0  0  0  0  0  0  0  0  0  0
    1.6002    0.5677   -0.9145 N   0  0  0  0  0  0  0  0  0  0  0  0
   -4.2818   -0.1647   -0.0597 C   0  0  0  0  0  0  0  0  0  0  0  0
   -5.5610   -0.0313    0.5933 N   0  0  0  0  0  0  0  0  0  0  0  0
   -6.5312    0.1161   -0.1633 O   0  0  0  0  0  0  0  0  0  0  0  0
   -5.6352   -0.0813    1.8306 O   0  0  0  0  0  0  0  0  0  0  0  0
   -1.9743   -1.9211    2.5719 H   0  0  0  0  0  0  0  0  0  0  0  0
   -2.1886   -0.6910    3.8362 H   0  0  0  0  0  0  0  0  0  0  0  0
   -0.9689   -0.4410    2.5840 H   0  0  0  0  0  0  0  0  0  0  0  0
   -3.8948   -0.1663    2.4470 H   0  0  0  0  0  0  0  0  0  0  0  0
   -1.1267   -0.1982    0.4991 H   0  0  0  0  0  0  0  0  0  0  0  0
   -2.4497   -0.0301   -2.1519 H   0  0  0  0  0  0  0  0  0  0  0  0
   -0.7575   -0.3245   -1.8323 H   0  0  0  0  0  0  0  0  0  0  0  0
   -0.7634    1.9686   -0.5160 H   0  0  0  0  0  0  0  0  0  0  0  0
   -2.3587    2.2175   -1.1991 H   0  0  0  0  0  0  0  0  0  0  0  0
    1.1662    3.0968   -1.5357 H   0  0  0  0  0  0  0  0  0  0  0  0
    1.6076    2.9718   -3.2356 H   0  0  0  0  0  0  0  0  0  0  0  0
    2.4535    0.5162   -4.1798 H   0  0  0  0  0  0  0  0  0  0  0  0
    2.4028   -2.5727   -0.0051 H   0  0  0  0  0  0  0  0  0  0  0  0
    1.2151   -1.5597    0.7587 H   0  0  0  0  0  0  0  0  0  0  0  0
    4.8113   -0.4397    0.1695 H   0  0  0  0  0  0  0  0  0  0  0  0
    4.7910   -2.1990    0.4125 H   0  0  0  0  0  0  0  0  0  0  0  0
    5.2680   -1.1429    1.7277 H   0  0  0  0  0  0  0  0  0  0  0  0
    3.5549    0.2583    2.8492 H   0  0  0  0  0  0  0  0  0  0  0  0
    3.0345    0.9503    1.3069 H   0  0  0  0  0  0  0  0  0  0  0  0
    1.8700    0.1206    2.3660 H   0  0  0  0  0  0  0  0  0  0  0  0
   -4.4195   -0.2160   -1.1254 H   0  0  0  0  0  0  0  0  0  0  0  0
  1  2  1  0
  2  3  1  0
  3  4  1  0
  4  5  1  0
  5  6  1  0
  6  7  1  0
  7  8  1  0
  8  9  1  0
  9 10  2  0
 10 11  1  0
 11 12  1  0
 12 13  1  0
 13 14  1  0
 14 15  1  0
 14 16  1  0
 12 17  2  0
  3 18  2  0
 18 19  1  0
 19 20  1  0
 19 21  2  0
 17  9  1  0
  1 22  1  0
  1 23  1  0
  1 24  1  0
  2 25  1  0
  4 26  1  0
  5 27  1  0
  5 28  1  0
  6 29  1  0
  6 30  1  0
  8 31  1  0
  8 32  1  0
 10 33  1  0
 13 34  1  0
 13 35  1  0
 15 36  1  0
 15 37  1  0
 15 38  1  0
 16 39  1  0
 16 40  1  0
 16 41  1  0
 18 42  1  0
M  CHG  2  19   1  20  -1
M  END
$$$$
