OMPs000020
     RDKit          3D

  8  7  0  0  0  0  0  0  0  0999 V2000
   -0.9426    0.1051    0.6620 N   0  0  0  0  0  0  0  0  0  0  0  0
   -0.1345   -0.3145   -0.3348 C   0  0  0  0  0  0  0  0  0  0  0  0
    1.0928    0.2461   -0.2881 N   0  0  0  0  0  0  0  0  0  0  0  0
   -0.4770   -1.1153   -1.1874 O   0  0  0  0  0  0  0  0  0  0  0  0
   -0.8534    1.0799    0.9110 H   0  0  0  0  0  0  0  0  0  0  0  0
   -1.8992   -0.2081    0.5492 H   0  0  0  0  0  0  0  0  0  0  0  0
    1.4755    0.3749    0.6377 H   0  0  0  0  0  0  0  0  0  0  0  0
    1.7383   -0.1680   -0.9497 H   0  0  0  0  0  0  0  0  0  0  0  0
  1  2  1  0
  2  3  1  0
  2  4  2  0
  1  5  1  0
  1  6  1  0
  3  7  1  0
  3  8  1  0
M  END
$$$$
