OMPs000056
     RDKit          3D

 19 20  0  0  0  0  0  0  0  0999 V2000
    3.6222   -0.3297   -0.1177 O   0  0  0  0  0  0  0  0  0  0  0  0
    2.2989   -0.0029   -0.0668 C   0  0  0  0  0  0  0  0  0  0  0  0
    1.9697    1.3438   -0.0058 C   0  0  0  0  0  0  0  0  0  0  0  0
    0.6286    1.7248    0.0477 C   0  0  0  0  0  0  0  0  0  0  0  0
   -0.3908    0.7587    0.0403 C   0  0  0  0  0  0  0  0  0  0  0  0
   -1.7451    1.1252    0.0936 C   0  0  0  0  0  0  0  0  0  0  0  0
   -2.7478    0.1543    0.0856 C   0  0  0  0  0  0  0  0  0  0  0  0
   -2.4100   -1.1944    0.0243 C   0  0  0  0  0  0  0  0  0  0  0  0
   -1.0684   -1.5763   -0.0292 C   0  0  0  0  0  0  0  0  0  0  0  0
   -0.0462   -0.6128   -0.0221 C   0  0  0  0  0  0  0  0  0  0  0  0
    1.3086   -0.9818   -0.0755 C   0  0  0  0  0  0  0  0  0  0  0  0
    3.7020   -1.2966   -0.1569 H   0  0  0  0  0  0  0  0  0  0  0  0
    2.7532    2.0961    0.0002 H   0  0  0  0  0  0  0  0  0  0  0  0
    0.3850    2.7836    0.0952 H   0  0  0  0  0  0  0  0  0  0  0  0
   -2.0291    2.1741    0.1419 H   0  0  0  0  0  0  0  0  0  0  0  0
   -3.7921    0.4527    0.1273 H   0  0  0  0  0  0  0  0  0  0  0  0
   -3.1905   -1.9507    0.0180 H   0  0  0  0  0  0  0  0  0  0  0  0
   -0.8265   -2.6356   -0.0767 H   0  0  0  0  0  0  0  0  0  0  0  0
    1.5784   -2.0324   -0.1234 H   0  0  0  0  0  0  0  0  0  0  0  0
  1  2  1  0
  2  3  2  0
  3  4  1  0
  4  5  2  0
  5  6  1  0
  6  7  2  0
  7  8  1  0
  8  9  2  0
  9 10  1  0
 10 11  2  0
 11  2  1  0
 10  5  1  0
  1 12  1  0
  3 13  1  0
  4 14  1  0
  6 15  1  0
  7 16  1  0
  8 17  1  0
  9 18  1  0
 11 19  1  0
M  END
$$$$
