OMPs000030
     RDKit          3D

 22 21  0  0  0  0  0  0  0  0999 V2000
   -2.3398    1.6059    0.2768 O   0  0  0  0  0  0  0  0  0  0  0  0
   -2.3126    0.1892    0.4487 C   0  0  0  0  0  0  0  0  0  0  0  0
   -1.4406   -0.4494   -0.6311 C   0  0  1  0  0  0  0  0  0  0  0  0
   -2.0585   -0.1748   -1.9076 O   0  0  0  0  0  0  0  0  0  0  0  0
   -0.0010    0.1003   -0.6879 C   0  0  2  0  0  0  0  0  0  0  0  0
    0.6634   -0.6056   -1.7622 O   0  0  0  0  0  0  0  0  0  0  0  0
    0.7923   -0.0959    0.6086 C   0  0  1  0  0  0  0  0  0  0  0  0
    0.9092   -1.5078    0.8641 O   0  0  0  0  0  0  0  0  0  0  0  0
    2.2063    0.4873    0.5135 C   0  0  0  0  0  0  0  0  0  0  0  0
    2.8849    0.2005    1.7409 O   0  0  0  0  0  0  0  0  0  0  0  0
   -2.6518    1.7389   -0.6411 H   0  0  0  0  0  0  0  0  0  0  0  0
   -3.3450   -0.1678    0.3704 H   0  0  0  0  0  0  0  0  0  0  0  0
   -1.9500   -0.0331    1.4554 H   0  0  0  0  0  0  0  0  0  0  0  0
   -1.4384   -1.5391   -0.5166 H   0  0  0  0  0  0  0  0  0  0  0  0
   -1.3764   -0.4063   -2.5713 H   0  0  0  0  0  0  0  0  0  0  0  0
   -0.0123    1.1570   -0.9779 H   0  0  0  0  0  0  0  0  0  0  0  0
    0.8908   -1.4814   -1.3845 H   0  0  0  0  0  0  0  0  0  0  0  0
    0.2794    0.3479    1.4677 H   0  0  0  0  0  0  0  0  0  0  0  0
    1.5737   -1.5675    1.5834 H   0  0  0  0  0  0  0  0  0  0  0  0
    2.7816    0.0187   -0.2910 H   0  0  0  0  0  0  0  0  0  0  0  0
    2.1791    1.5711    0.3669 H   0  0  0  0  0  0  0  0  0  0  0  0
    3.7655    0.6120    1.6748 H   0  0  0  0  0  0  0  0  0  0  0  0
  1  2  1  0
  2  3  1  0
  3  4  1  0
  3  5  1  0
  5  6  1  0
  5  7  1  0
  7  8  1  0
  7  9  1  0
  9 10  1  0
  1 11  1  0
  2 12  1  0
  2 13  1  0
  3 14  1  1
  4 15  1  0
  5 16  1  6
  6 17  1  0
  7 18  1  1
  8 19  1  0
  9 20  1  0
  9 21  1  0
 10 22  1  0
M  END
$$$$
