OMPs000079
     RDKit          3D

 25 25  0  0  0  0  0  0  0  0999 V2000
   -4.0226   -0.6499    0.2208 C   0  0  0  0  0  0  0  0  0  0  0  0
   -2.7073   -0.9700    0.9132 C   0  0  0  0  0  0  0  0  0  0  0  0
   -1.6398   -1.1433   -0.0557 N   0  0  0  0  0  0  0  0  0  0  0  0
   -0.8866   -0.0218   -0.3703 C   0  0  0  0  0  0  0  0  0  0  0  0
   -1.4292    1.1805   -0.3496 N   0  0  0  0  0  0  0  0  0  0  0  0
   -0.5894    2.1425   -0.6944 C   0  0  0  0  0  0  0  0  0  0  0  0
   -1.2260    3.7295   -0.6790 Cl  0  0  0  0  0  0  0  0  0  0  0  0
    0.6884    2.0354   -1.0230 N   0  0  0  0  0  0  0  0  0  0  0  0
    1.1288    0.7926   -1.0074 C   0  0  0  0  0  0  0  0  0  0  0  0
    2.4564    0.6267   -1.3610 N   0  0  0  0  0  0  0  0  0  0  0  0
    3.1825   -0.4867   -0.7798 C   0  0  0  0  0  0  0  0  0  0  0  0
    3.5221   -0.2330    0.6809 C   0  0  0  0  0  0  0  0  0  0  0  0
    0.3832   -0.2581   -0.6785 N   0  0  0  0  0  0  0  0  0  0  0  0
   -4.2804   -1.4268   -0.5069 H   0  0  0  0  0  0  0  0  0  0  0  0
   -4.8317   -0.5894    0.9554 H   0  0  0  0  0  0  0  0  0  0  0  0
   -3.9794    0.3044   -0.3126 H   0  0  0  0  0  0  0  0  0  0  0  0
   -2.4649   -0.2117    1.6679 H   0  0  0  0  0  0  0  0  0  0  0  0
   -2.8293   -1.9152    1.4551 H   0  0  0  0  0  0  0  0  0  0  0  0
   -0.9827   -1.8895    0.1458 H   0  0  0  0  0  0  0  0  0  0  0  0
    2.9137    1.5306   -1.3202 H   0  0  0  0  0  0  0  0  0  0  0  0
    2.6388   -1.4320   -0.8929 H   0  0  0  0  0  0  0  0  0  0  0  0
    4.1181   -0.6043   -1.3384 H   0  0  0  0  0  0  0  0  0  0  0  0
    4.0879    0.6976    0.7966 H   0  0  0  0  0  0  0  0  0  0  0  0
    2.6197   -0.1550    1.2958 H   0  0  0  0  0  0  0  0  0  0  0  0
    4.1297   -1.0531    1.0761 H   0  0  0  0  0  0  0  0  0  0  0  0
  1  2  1  0
  2  3  1  0
  3  4  1  0
  4  5  2  0
  5  6  1  0
  6  7  1  0
  6  8  2  0
  8  9  1  0
  9 10  1  0
 10 11  1  0
 11 12  1  0
  9 13  2  0
 13  4  1  0
  1 14  1  0
  1 15  1  0
  1 16  1  0
  2 17  1  0
  2 18  1  0
  3 19  1  0
 10 20  1  0
 11 21  1  0
 11 22  1  0
 12 23  1  0
 12 24  1  0
 12 25  1  0
M  END
$$$$
