OMPs000037
     RDKit          3D

 16 15  0  0  0  0  0  0  0  0999 V2000
   -2.6553   -0.3908   -0.0798 C   0  0  0  0  0  0  0  0  0  0  0  0
   -1.3947    0.4167   -0.3163 C   0  0  0  0  0  0  0  0  0  0  0  0
   -0.2743   -0.3692    0.0836 O   0  0  0  0  0  0  0  0  0  0  0  0
    0.9536    0.3300   -0.1046 C   0  0  0  0  0  0  0  0  0  0  0  0
    2.1161   -0.5704    0.2991 C   0  0  0  0  0  0  0  0  0  0  0  0
    3.3554    0.1208    0.1943 O   0  0  0  0  0  0  0  0  0  0  0  0
   -2.6274   -1.3252   -0.6502 H   0  0  0  0  0  0  0  0  0  0  0  0
   -2.7451   -0.6651    0.9765 H   0  0  0  0  0  0  0  0  0  0  0  0
   -3.5429    0.1761   -0.3741 H   0  0  0  0  0  0  0  0  0  0  0  0
   -1.4279    1.3401    0.2723 H   0  0  0  0  0  0  0  0  0  0  0  0
   -1.3086    0.6701   -1.3786 H   0  0  0  0  0  0  0  0  0  0  0  0
    0.9605    1.2420    0.5042 H   0  0  0  0  0  0  0  0  0  0  0  0
    1.0647    0.6284   -1.1539 H   0  0  0  0  0  0  0  0  0  0  0  0
    1.9949   -0.9348    1.3250 H   0  0  0  0  0  0  0  0  0  0  0  0
    2.1540   -1.4517   -0.3497 H   0  0  0  0  0  0  0  0  0  0  0  0
    3.3771    0.7829    0.9064 H   0  0  0  0  0  0  0  0  0  0  0  0
  1  2  1  0
  2  3  1  0
  3  4  1  0
  4  5  1  0
  5  6  1  0
  1  7  1  0
  1  8  1  0
  1  9  1  0
  2 10  1  0
  2 11  1  0
  4 12  1  0
  4 13  1  0
  5 14  1  0
  5 15  1  0
  6 16  1  0
M  END
$$$$
