OMPs000022
     RDKit          3D

 10  9  0  0  0  0  0  0  0  0999 V2000
   -1.7881    0.3156   -0.3307 O   0  0  0  0  0  0  0  0  0  0  0  0
   -0.5282   -0.3248   -0.4757 C   0  0  0  0  0  0  0  0  0  0  0  0
    0.5840    0.4871    0.1805 C   0  0  0  0  0  0  0  0  0  0  0  0
    1.8351   -0.1790    0.0821 O   0  0  0  0  0  0  0  0  0  0  0  0
   -1.9925    0.3612    0.6189 H   0  0  0  0  0  0  0  0  0  0  0  0
   -0.3229   -0.4534   -1.5435 H   0  0  0  0  0  0  0  0  0  0  0  0
   -0.5879   -1.3282   -0.0405 H   0  0  0  0  0  0  0  0  0  0  0  0
    0.3619    0.6707    1.2372 H   0  0  0  0  0  0  0  0  0  0  0  0
    0.6713    1.4667   -0.3007 H   0  0  0  0  0  0  0  0  0  0  0  0
    1.7674   -1.0159    0.5726 H   0  0  0  0  0  0  0  0  0  0  0  0
  1  2  1  0
  2  3  1  0
  3  4  1  0
  1  5  1  0
  2  6  1  0
  2  7  1  0
  3  8  1  0
  3  9  1  0
  4 10  1  0
M  END
$$$$
