OMPs000167
     RDKit          3D

 16 16  0  0  0  0  0  0  0  0999 V2000
    2.3779    1.1712   -0.7583 O   0  0  0  0  0  0  0  0  0  0  0  0
    1.8472   -0.0679   -0.8246 C   0  0  0  0  0  0  0  0  0  0  0  0
    2.4731   -0.9864   -1.3197 O   0  0  0  0  0  0  0  0  0  0  0  0
    0.4834   -0.1476   -0.2471 C   0  0  0  0  0  0  0  0  0  0  0  0
   -0.1496   -1.3999   -0.2718 C   0  0  0  0  0  0  0  0  0  0  0  0
   -1.4348   -1.5543    0.2533 C   0  0  0  0  0  0  0  0  0  0  0  0
   -2.0969   -0.4597    0.8067 C   0  0  0  0  0  0  0  0  0  0  0  0
   -1.4762    0.7891    0.8360 C   0  0  0  0  0  0  0  0  0  0  0  0
   -0.1930    0.9452    0.3121 C   0  0  0  0  0  0  0  0  0  0  0  0
    0.3313    2.2073    0.3868 O   0  0  0  0  0  0  0  0  0  0  0  0
    3.2617    1.0509   -1.1739 H   0  0  0  0  0  0  0  0  0  0  0  0
    0.3567   -2.2629   -0.7012 H   0  0  0  0  0  0  0  0  0  0  0  0
   -1.9182   -2.5282    0.2302 H   0  0  0  0  0  0  0  0  0  0  0  0
   -3.0973   -0.5772    1.2161 H   0  0  0  0  0  0  0  0  0  0  0  0
   -1.9918    1.6435    1.2674 H   0  0  0  0  0  0  0  0  0  0  0  0
    1.2265    2.1770   -0.0121 H   0  0  0  0  0  0  0  0  0  0  0  0
  1  2  1  0
  2  3  2  0
  2  4  1  0
  4  5  2  0
  5  6  1  0
  6  7  2  0
  7  8  1  0
  8  9  2  0
  9 10  1  0
  9  4  1  0
  1 11  1  0
  5 12  1  0
  6 13  1  0
  7 14  1  0
  8 15  1  0
 10 16  1  0
M  END
$$$$
