OMPs000139
     RDKit          3D

 56 59  0  0  0  0  0  0  0  0999 V2000
   -1.5627   -2.0528    2.5287 C   0  0  0  0  0  0  0  0  0  0  0  0
   -1.7055   -1.8516    1.0857 N   0  0  0  0  0  0  0  0  0  0  0  0
   -2.7729   -2.6904    0.5456 C   0  0  0  0  0  0  0  0  0  0  0  0
   -1.7438   -0.4193    0.7002 C   0  0  1  0  0  0  0  0  0  0  0  0
   -1.3867   -0.2330   -0.8072 C   0  0  2  0  0  0  0  0  0  0  0  0
   -0.0566   -0.9690   -1.2050 C   0  0  0  0  0  0  0  0  0  0  0  0
    1.1577   -0.0376   -1.4309 C   0  0  1  0  0  0  0  0  0  0  0  0
    1.0985    1.0682   -0.4210 C   0  0  0  0  0  0  0  0  0  0  0  0
    1.9402    1.1949    0.6161 C   0  0  0  0  0  0  0  0  0  0  0  0
    1.8549    2.2131    1.5478 O   0  0  0  0  0  0  0  0  0  0  0  0
    2.9383    0.1325    0.8883 C   0  0  0  0  0  0  0  0  0  0  0  0
    3.6301    0.0374    2.1122 C   0  0  0  0  0  0  0  0  0  0  0  0
    3.4729    0.9451    3.1274 O   0  0  0  0  0  0  0  0  0  0  0  0
    4.5194   -1.0033    2.3729 C   0  0  0  0  0  0  0  0  0  0  0  0
    4.7433   -1.9798    1.4106 C   0  0  0  0  0  0  0  0  0  0  0  0
    4.0842   -1.9065    0.1856 C   0  0  0  0  0  0  0  0  0  0  0  0
    3.1804   -0.8608   -0.0924 C   0  0  0  0  0  0  0  0  0  0  0  0
    2.5421   -0.7507   -1.4738 C   0  0  2  0  0  0  0  0  0  0  0  0
    3.5205    0.0273   -2.3782 C   0  0  0  0  0  0  0  0  0  0  0  0
    2.3846   -2.0557   -2.0419 O   0  0  0  0  0  0  0  0  0  0  0  0
   -0.1143    1.9265   -0.5228 C   0  0  0  0  0  0  0  0  0  0  0  0
   -0.1208    3.0544   -0.0355 O   0  0  0  0  0  0  0  0  0  0  0  0
   -1.3360    1.2666   -1.1788 C   0  0  1  0  0  0  0  0  0  0  0  0
   -1.1925    1.3722   -2.6047 O   0  0  0  0  0  0  0  0  0  0  0  0
   -2.6255    1.9939   -0.8182 C   0  0  0  0  0  0  0  0  0  0  0  0
   -3.0569    2.9042   -1.5355 O   0  0  0  0  0  0  0  0  0  0  0  0
   -3.3254    1.6155    0.4327 C   0  0  0  0  0  0  0  0  0  0  0  0
   -4.1595    2.5025    1.0210 C   0  0  0  0  0  0  0  0  0  0  0  0
   -4.8065    2.3295    2.2137 N   0  0  0  0  0  0  0  0  0  0  0  0
   -4.4696    3.7262    0.4730 O   0  0  0  0  0  0  0  0  0  0  0  0
   -3.0742    0.2823    1.0620 C   0  0  0  0  0  0  0  0  0  0  0  0
   -3.8942   -0.1850    1.8548 O   0  0  0  0  0  0  0  0  0  0  0  0
   -2.4523   -1.7600    3.0939 H   0  0  0  0  0  0  0  0  0  0  0  0
   -1.3593   -3.1078    2.7457 H   0  0  0  0  0  0  0  0  0  0  0  0
   -0.7058   -1.4906    2.9163 H   0  0  0  0  0  0  0  0  0  0  0  0
   -3.7562   -2.4667    0.9693 H   0  0  0  0  0  0  0  0  0  0  0  0
   -2.8400   -2.6074   -0.5430 H   0  0  0  0  0  0  0  0  0  0  0  0
   -2.5589   -3.7458    0.7517 H   0  0  0  0  0  0  0  0  0  0  0  0
   -0.9759    0.0942    1.2932 H   0  0  0  0  0  0  0  0  0  0  0  0
   -2.1881   -0.6882   -1.4066 H   0  0  0  0  0  0  0  0  0  0  0  0
    0.2057   -1.7383   -0.4711 H   0  0  0  0  0  0  0  0  0  0  0  0
   -0.2441   -1.5110   -2.1421 H   0  0  0  0  0  0  0  0  0  0  0  0
    1.0229    0.4023   -2.4287 H   0  0  0  0  0  0  0  0  0  0  0  0
    1.2330    2.8949    1.2032 H   0  0  0  0  0  0  0  0  0  0  0  0
    2.8653    1.6359    2.7916 H   0  0  0  0  0  0  0  0  0  0  0  0
    5.0322   -1.0496    3.3296 H   0  0  0  0  0  0  0  0  0  0  0  0
    5.4349   -2.7937    1.6105 H   0  0  0  0  0  0  0  0  0  0  0  0
    4.2815   -2.6710   -0.5642 H   0  0  0  0  0  0  0  0  0  0  0  0
    4.4824   -0.4935   -2.4590 H   0  0  0  0  0  0  0  0  0  0  0  0
    3.1310    0.1036   -3.4001 H   0  0  0  0  0  0  0  0  0  0  0  0
    3.7137    1.0401   -2.0083 H   0  0  0  0  0  0  0  0  0  0  0  0
    2.1307   -1.9512   -2.9743 H   0  0  0  0  0  0  0  0  0  0  0  0
   -1.4545    2.2875   -2.8447 H   0  0  0  0  0  0  0  0  0  0  0  0
   -4.9329    1.3458    2.4713 H   0  0  0  0  0  0  0  0  0  0  0  0
   -5.6667    2.8699    2.2511 H   0  0  0  0  0  0  0  0  0  0  0  0
   -4.0621    3.8039   -0.4156 H   0  0  0  0  0  0  0  0  0  0  0  0
  1  2  1  0
  2  3  1  0
  2  4  1  0
  4  5  1  0
  5  6  1  0
  6  7  1  0
  7  8  1  0
  8  9  2  0
  9 10  1  0
  9 11  1  0
 11 12  2  0
 12 13  1  0
 12 14  1  0
 14 15  2  0
 15 16  1  0
 16 17  2  0
 17 18  1  0
 18 19  1  0
 18 20  1  6
  8 21  1  0
 21 22  2  0
 21 23  1  0
 23 24  1  6
 23 25  1  0
 25 26  2  0
 25 27  1  0
 27 28  2  0
 28 29  1  0
 28 30  1  0
 27 31  1  0
 31 32  2  0
 31  4  1  0
 23  5  1  0
 18  7  1  0
 17 11  1  0
  1 33  1  0
  1 34  1  0
  1 35  1  0
  3 36  1  0
  3 37  1  0
  3 38  1  0
  4 39  1  1
  5 40  1  6
  6 41  1  0
  6 42  1  0
  7 43  1  6
 10 44  1  0
 13 45  1  0
 14 46  1  0
 15 47  1  0
 16 48  1  0
 19 49  1  0
 19 50  1  0
 19 51  1  0
 20 52  1  0
 24 53  1  0
 29 54  1  0
 29 55  1  0
 30 56  1  0
M  END
$$$$
