OMPs000121
     RDKit          3D

 19 19  0  0  0  0  0  0  0  0999 V2000
    1.6346    2.3787    0.8168 O   0  0  0  0  0  0  0  0  0  0  0  0
    0.9428    1.5029    0.3022 C   0  0  0  0  0  0  0  0  0  0  0  0
    1.5460    0.2858   -0.3584 C   0  0  0  0  0  0  0  0  0  0  0  0
    1.1095   -1.0159    0.3037 C   0  0  0  0  0  0  0  0  0  0  0  0
   -0.2514   -1.5188   -0.1745 C   0  0  0  0  0  0  0  0  0  0  0  0
   -1.4287   -0.6293    0.2208 C   0  0  0  0  0  0  0  0  0  0  0  0
   -1.3605    0.7709   -0.3746 C   0  0  0  0  0  0  0  0  0  0  0  0
   -0.4139    1.6213    0.3094 N   0  0  0  0  0  0  0  0  0  0  0  0
    2.6351    0.3787   -0.2632 H   0  0  0  0  0  0  0  0  0  0  0  0
    1.3205    0.2991   -1.4301 H   0  0  0  0  0  0  0  0  0  0  0  0
    1.8518   -1.7873    0.0638 H   0  0  0  0  0  0  0  0  0  0  0  0
    1.1038   -0.9101    1.3954 H   0  0  0  0  0  0  0  0  0  0  0  0
   -0.2352   -1.6454   -1.2641 H   0  0  0  0  0  0  0  0  0  0  0  0
   -0.4189   -2.5166    0.2496 H   0  0  0  0  0  0  0  0  0  0  0  0
   -2.3469   -1.1121   -0.1357 H   0  0  0  0  0  0  0  0  0  0  0  0
   -1.5018   -0.5744    1.3139 H   0  0  0  0  0  0  0  0  0  0  0  0
   -2.3377    1.2560   -0.2775 H   0  0  0  0  0  0  0  0  0  0  0  0
   -1.1045    0.7399   -1.4390 H   0  0  0  0  0  0  0  0  0  0  0  0
   -0.7445    2.4766    0.7412 H   0  0  0  0  0  0  0  0  0  0  0  0
  1  2  2  0
  2  3  1  0
  3  4  1  0
  4  5  1  0
  5  6  1  0
  6  7  1  0
  7  8  1  0
  8  2  1  0
  3  9  1  0
  3 10  1  0
  4 11  1  0
  4 12  1  0
  5 13  1  0
  5 14  1  0
  6 15  1  0
  6 16  1  0
  7 17  1  0
  7 18  1  0
  8 19  1  0
M  END
$$$$
