OMPs000067
     RDKit          3D

 26 26  0  0  0  0  0  0  0  0999 V2000
   -5.0361   -0.3142    0.0232 C   0  0  0  0  0  0  0  0  0  0  0  0
   -3.6210    0.1944    0.2326 C   0  0  0  0  0  0  0  0  0  0  0  0
   -2.7213   -0.7802   -0.2929 O   0  0  0  0  0  0  0  0  0  0  0  0
   -1.3856   -0.5061   -0.1986 C   0  0  0  0  0  0  0  0  0  0  0  0
   -0.8168    0.6360    0.3606 C   0  0  0  0  0  0  0  0  0  0  0  0
    0.5768    0.7919    0.3932 C   0  0  0  0  0  0  0  0  0  0  0  0
    1.4169   -0.1905   -0.1316 C   0  0  0  0  0  0  0  0  0  0  0  0
    2.8243   -0.1073   -0.1373 N   0  0  0  0  0  0  0  0  0  0  0  0
    3.6099    0.9143    0.3650 C   0  0  0  0  0  0  0  0  0  0  0  0
    5.0826    0.6445    0.1788 C   0  0  0  0  0  0  0  0  0  0  0  0
    3.2271    1.9327    0.9294 O   0  0  0  0  0  0  0  0  0  0  0  0
    0.8412   -1.3353   -0.6927 C   0  0  0  0  0  0  0  0  0  0  0  0
   -0.5483   -1.4896   -0.7247 C   0  0  0  0  0  0  0  0  0  0  0  0
   -5.2326   -0.4800   -1.0413 H   0  0  0  0  0  0  0  0  0  0  0  0
   -5.1787   -1.2759    0.5272 H   0  0  0  0  0  0  0  0  0  0  0  0
   -5.7684    0.3997    0.4106 H   0  0  0  0  0  0  0  0  0  0  0  0
   -3.4465    0.3341    1.3057 H   0  0  0  0  0  0  0  0  0  0  0  0
   -3.5016    1.1470   -0.2963 H   0  0  0  0  0  0  0  0  0  0  0  0
   -1.4222    1.4310    0.7831 H   0  0  0  0  0  0  0  0  0  0  0  0
    0.9714    1.6999    0.8387 H   0  0  0  0  0  0  0  0  0  0  0  0
    3.3100   -0.8926   -0.5514 H   0  0  0  0  0  0  0  0  0  0  0  0
    5.2730    0.1580   -0.7822 H   0  0  0  0  0  0  0  0  0  0  0  0
    5.6299    1.5914    0.1929 H   0  0  0  0  0  0  0  0  0  0  0  0
    5.4394    0.0065    0.9916 H   0  0  0  0  0  0  0  0  0  0  0  0
    1.4581   -2.1246   -1.1131 H   0  0  0  0  0  0  0  0  0  0  0  0
   -0.9815   -2.3850   -1.1638 H   0  0  0  0  0  0  0  0  0  0  0  0
  1  2  1  0
  2  3  1  0
  3  4  1  0
  4  5  2  0
  5  6  1  0
  6  7  2  0
  7  8  1  0
  8  9  1  0
  9 10  1  0
  9 11  2  0
  7 12  1  0
 12 13  2  0
 13  4  1  0
  1 14  1  0
  1 15  1  0
  1 16  1  0
  2 17  1  0
  2 18  1  0
  5 19  1  0
  6 20  1  0
  8 21  1  0
 10 22  1  0
 10 23  1  0
 10 24  1  0
 12 25  1  0
 13 26  1  0
M  END
$$$$
