OMPs000214
     RDKit          3D

 27 28  0  0  0  0  0  0  0  0999 V2000
    4.1654    1.7649    0.9075 N   0  0  0  0  0  0  0  0  0  0  0  0
    3.2001    1.0274    0.2129 C   0  0  0  0  0  0  0  0  0  0  0  0
    3.1042   -0.3554    0.3996 C   0  0  0  0  0  0  0  0  0  0  0  0
    2.0709   -1.0867   -0.1924 C   0  0  0  0  0  0  0  0  0  0  0  0
    1.0953   -0.4201   -0.9375 C   0  0  0  0  0  0  0  0  0  0  0  0
    1.1547    0.9643   -1.1004 C   0  0  0  0  0  0  0  0  0  0  0  0
    2.1906    1.6839   -0.4985 C   0  0  0  0  0  0  0  0  0  0  0  0
   -0.1901   -1.3563   -1.7220 S   0  0  0  0  0  6  0  0  0  0  0  0
   -0.8786   -0.5317   -2.6905 O   0  0  0  0  0  0  0  0  0  0  0  0
    0.3969   -2.6194   -2.1261 O   0  0  0  0  0  0  0  0  0  0  0  0
   -1.2318   -1.7451   -0.4742 N   0  0  0  0  0  0  0  0  0  0  0  0
   -2.1567   -0.7906   -0.0112 C   0  0  0  0  0  0  0  0  0  0  0  0
   -3.3432   -1.2123    0.5659 C   0  0  0  0  0  0  0  0  0  0  0  0
   -4.1975   -0.2567    1.1130 C   0  0  0  0  0  0  0  0  0  0  0  0
   -3.8012    1.0647    1.0745 C   0  0  0  0  0  0  0  0  0  0  0  0
   -4.7733    2.3146    1.7199 Cl  0  0  0  0  0  0  0  0  0  0  0  0
   -2.6279    1.4511    0.5412 N   0  0  0  0  0  0  0  0  0  0  0  0
   -1.7906    0.5033    0.0058 N   0  0  0  0  0  0  0  0  0  0  0  0
    4.3601    2.6737    0.4985 H   0  0  0  0  0  0  0  0  0  0  0  0
    5.0126    1.2454    1.1135 H   0  0  0  0  0  0  0  0  0  0  0  0
    3.8401   -0.8762    1.0069 H   0  0  0  0  0  0  0  0  0  0  0  0
    2.0314   -2.1651   -0.0618 H   0  0  0  0  0  0  0  0  0  0  0  0
    0.3901    1.4927   -1.6660 H   0  0  0  0  0  0  0  0  0  0  0  0
    2.2018    2.7669   -0.5928 H   0  0  0  0  0  0  0  0  0  0  0  0
   -1.4665   -2.7319   -0.4498 H   0  0  0  0  0  0  0  0  0  0  0  0
   -3.6149   -2.2614    0.5926 H   0  0  0  0  0  0  0  0  0  0  0  0
   -5.1418   -0.5443    1.5607 H   0  0  0  0  0  0  0  0  0  0  0  0
  1  2  1  0
  2  3  2  0
  3  4  1  0
  4  5  2  0
  5  6  1  0
  6  7  2  0
  5  8  1  0
  8  9  2  0
  8 10  2  0
  8 11  1  0
 11 12  1  0
 12 13  2  0
 13 14  1  0
 14 15  2  0
 15 16  1  0
 15 17  1  0
 17 18  2  0
  7  2  1  0
 18 12  1  0
  1 19  1  0
  1 20  1  0
  3 21  1  0
  4 22  1  0
  6 23  1  0
  7 24  1  0
 11 25  1  0
 13 26  1  0
 14 27  1  0
M  END
$$$$
