OMPs000181
     RDKit          3D

 22 21  0  0  0  0  0  0  0  0999 V2000
   -2.3564    0.0437    0.6316 C   0  0  0  0  0  0  0  0  0  0  0  0
   -1.5168    0.8195   -0.3748 C   0  0  0  0  0  0  0  0  0  0  0  0
   -0.1140    0.2290   -0.6554 C   0  0  2  0  0  0  0  0  0  0  0  0
   -0.2460   -1.1313   -1.3565 C   0  0  0  0  0  0  0  0  0  0  0  0
    0.7847    0.1358    0.6027 C   0  0  2  0  0  0  0  0  0  0  0  0
    0.8515    1.4453    1.2982 N   0  0  0  0  0  0  0  0  0  0  0  0
    2.2153   -0.2828    0.2270 C   0  0  0  0  0  0  0  0  0  0  0  0
    2.4094   -1.6153    0.2712 O   0  0  0  0  0  0  0  0  0  0  0  0
    3.1314    0.4669   -0.0768 O   0  0  0  0  0  0  0  0  0  0  0  0
   -3.3322    0.5262    0.7506 H   0  0  0  0  0  0  0  0  0  0  0  0
   -1.8815    0.0146    1.6163 H   0  0  0  0  0  0  0  0  0  0  0  0
   -2.5345   -0.9834    0.3008 H   0  0  0  0  0  0  0  0  0  0  0  0
   -1.4193    1.8549   -0.0274 H   0  0  0  0  0  0  0  0  0  0  0  0
   -2.0732    0.8763   -1.3192 H   0  0  0  0  0  0  0  0  0  0  0  0
    0.3713    0.9045   -1.3749 H   0  0  0  0  0  0  0  0  0  0  0  0
   -0.5783   -1.9117   -0.6645 H   0  0  0  0  0  0  0  0  0  0  0  0
    0.7098   -1.4472   -1.7863 H   0  0  0  0  0  0  0  0  0  0  0  0
   -0.9641   -1.0785   -2.1820 H   0  0  0  0  0  0  0  0  0  0  0  0
    0.3911   -0.5969    1.3161 H   0  0  0  0  0  0  0  0  0  0  0  0
    1.4703    1.3547    2.1052 H   0  0  0  0  0  0  0  0  0  0  0  0
    1.3317    2.1041    0.6789 H   0  0  0  0  0  0  0  0  0  0  0  0
    3.3500   -1.7282    0.0193 H   0  0  0  0  0  0  0  0  0  0  0  0
  1  2  1  0
  2  3  1  0
  3  4  1  0
  3  5  1  0
  5  6  1  0
  5  7  1  0
  7  8  1  0
  7  9  2  0
  1 10  1  0
  1 11  1  0
  1 12  1  0
  2 13  1  0
  2 14  1  0
  3 15  1  6
  4 16  1  0
  4 17  1  0
  4 18  1  0
  5 19  1  1
  6 20  1  0
  6 21  1  0
  8 22  1  0
M  END
$$$$
