OMPs000168
     RDKit          3D

 27 29  0  0  0  0  0  0  0  0999 V2000
    0.4246   -2.9962    0.9647 O   0  0  0  0  0  0  0  0  0  0  0  0
    0.0964   -2.4640   -0.2262 C   0  0  0  0  0  0  0  0  0  0  0  0
   -0.1519   -3.1490   -1.1987 O   0  0  0  0  0  0  0  0  0  0  0  0
    0.0375   -0.9927   -0.1420 C   0  0  0  0  0  0  0  0  0  0  0  0
   -1.2380   -0.3649   -0.2037 C   0  0  0  0  0  0  0  0  0  0  0  0
   -2.4693   -1.0547   -0.3421 C   0  0  0  0  0  0  0  0  0  0  0  0
   -3.6895   -0.3773   -0.3890 C   0  0  0  0  0  0  0  0  0  0  0  0
   -3.7142    1.0070   -0.2978 C   0  0  0  0  0  0  0  0  0  0  0  0
   -2.5193    1.7113   -0.1617 C   0  0  0  0  0  0  0  0  0  0  0  0
   -1.2836    1.0429   -0.1143 C   0  0  0  0  0  0  0  0  0  0  0  0
   -0.0922    1.7719    0.0217 C   0  0  0  0  0  0  0  0  0  0  0  0
    1.1636    1.1472    0.0672 C   0  0  0  0  0  0  0  0  0  0  0  0
    2.3319    1.9188    0.1925 C   0  0  0  0  0  0  0  0  0  0  0  0
    3.5898    1.3200    0.2293 C   0  0  0  0  0  0  0  0  0  0  0  0
    3.6968   -0.0604    0.1395 C   0  0  0  0  0  0  0  0  0  0  0  0
    2.5444   -0.8394    0.0164 C   0  0  0  0  0  0  0  0  0  0  0  0
    1.2510   -0.2589   -0.0177 C   0  0  0  0  0  0  0  0  0  0  0  0
    0.3983   -3.9638    0.8149 H   0  0  0  0  0  0  0  0  0  0  0  0
   -2.4920   -2.1403   -0.4228 H   0  0  0  0  0  0  0  0  0  0  0  0
   -4.6161   -0.9349   -0.4992 H   0  0  0  0  0  0  0  0  0  0  0  0
   -4.6604    1.5402   -0.3343 H   0  0  0  0  0  0  0  0  0  0  0  0
   -2.5610    2.7968   -0.0933 H   0  0  0  0  0  0  0  0  0  0  0  0
   -0.1436    2.8585    0.0889 H   0  0  0  0  0  0  0  0  0  0  0  0
    2.2705    3.0034    0.2604 H   0  0  0  0  0  0  0  0  0  0  0  0
    4.4825    1.9323    0.3255 H   0  0  0  0  0  0  0  0  0  0  0  0
    4.6740   -0.5357    0.1646 H   0  0  0  0  0  0  0  0  0  0  0  0
    2.6699   -1.9182   -0.0533 H   0  0  0  0  0  0  0  0  0  0  0  0
  1  2  1  0
  2  3  2  0
  2  4  1  0
  4  5  2  0
  5  6  1  0
  6  7  2  0
  7  8  1  0
  8  9  2  0
  9 10  1  0
 10 11  2  0
 11 12  1  0
 12 13  2  0
 13 14  1  0
 14 15  2  0
 15 16  1  0
 16 17  2  0
 17  4  1  0
 10  5  1  0
 17 12  1  0
  1 18  1  0
  6 19  1  0
  7 20  1  0
  8 21  1  0
  9 22  1  0
 11 23  1  0
 13 24  1  0
 14 25  1  0
 15 26  1  0
 16 27  1  0
M  END
$$$$
