OMPs000042
     RDKit          3D

 25 25  0  0  0  0  0  0  0  0999 V2000
   -4.0327   -1.1847   -0.5228 C   0  0  0  0  0  0  0  0  0  0  0  0
   -3.3013   -0.0373   -0.9450 O   0  0  0  0  0  0  0  0  0  0  0  0
   -2.2697    0.2136    0.0170 N   0  0  0  0  0  0  0  0  0  0  0  0
   -2.4390    1.5823    0.4711 C   0  0  0  0  0  0  0  0  0  0  0  0
   -1.0212   -0.1961   -0.5104 C   0  0  0  0  0  0  0  0  0  0  0  0
   -0.9044   -0.8303   -1.5555 O   0  0  0  0  0  0  0  0  0  0  0  0
    0.0341    0.1524    0.3224 N   0  0  0  0  0  0  0  0  0  0  0  0
    1.4117    0.0003    0.0689 C   0  0  0  0  0  0  0  0  0  0  0  0
    1.9386   -0.3312   -1.1808 C   0  0  0  0  0  0  0  0  0  0  0  0
    3.3215   -0.4527   -1.3604 C   0  0  0  0  0  0  0  0  0  0  0  0
    4.1930   -0.2373   -0.2923 C   0  0  0  0  0  0  0  0  0  0  0  0
    5.8867   -0.4024   -0.5842 Cl  0  0  0  0  0  0  0  0  0  0  0  0
    3.6749    0.1043    0.9595 C   0  0  0  0  0  0  0  0  0  0  0  0
    4.6848    0.3947    2.3323 Cl  0  0  0  0  0  0  0  0  0  0  0  0
    2.2904    0.2248    1.1358 C   0  0  0  0  0  0  0  0  0  0  0  0
   -3.3828   -2.0645   -0.4868 H   0  0  0  0  0  0  0  0  0  0  0  0
   -4.8298   -1.3687   -1.2480 H   0  0  0  0  0  0  0  0  0  0  0  0
   -4.4855   -1.0083    0.4580 H   0  0  0  0  0  0  0  0  0  0  0  0
   -3.4783    1.7371    0.7753 H   0  0  0  0  0  0  0  0  0  0  0  0
   -2.1833    2.2698   -0.3415 H   0  0  0  0  0  0  0  0  0  0  0  0
   -1.7870    1.7838    1.3245 H   0  0  0  0  0  0  0  0  0  0  0  0
   -0.2329    0.3694    1.2712 H   0  0  0  0  0  0  0  0  0  0  0  0
    1.2991   -0.4962   -2.0441 H   0  0  0  0  0  0  0  0  0  0  0  0
    3.7070   -0.7153   -2.3431 H   0  0  0  0  0  0  0  0  0  0  0  0
    1.9060    0.4922    2.1169 H   0  0  0  0  0  0  0  0  0  0  0  0
  1  2  1  0
  2  3  1  0
  3  4  1  0
  3  5  1  0
  5  6  2  0
  5  7  1  0
  7  8  1  0
  8  9  2  0
  9 10  1  0
 10 11  2  0
 11 12  1  0
 11 13  1  0
 13 14  1  0
 13 15  2  0
 15  8  1  0
  1 16  1  0
  1 17  1  0
  1 18  1  0
  4 19  1  0
  4 20  1  0
  4 21  1  0
  7 22  1  0
  9 23  1  0
 10 24  1  0
 15 25  1  0
M  END
$$$$
