OMPs000051
     RDKit          3D

 35 35  0  0  0  0  0  0  0  0999 V2000
    0.1715    4.6525    0.6728 C   0  0  0  0  0  0  0  0  0  0  0  0
   -1.2104    3.7336   -0.0461 S   0  0  0  0  0  0  0  0  0  0  0  0
   -0.5721    2.0787    0.0936 C   0  0  0  0  0  0  0  0  0  0  0  0
   -1.4728    1.1148    0.2282 N   0  0  0  0  0  0  0  0  0  0  0  0
   -0.9766   -0.1065    0.3181 C   0  0  0  0  0  0  0  0  0  0  0  0
   -1.8137   -1.2020    0.4841 N   0  0  0  0  0  0  0  0  0  0  0  0
   -3.1413   -1.1141   -0.1128 C   0  0  0  0  0  0  0  0  0  0  0  0
   -4.1366   -0.5609    0.9070 C   0  0  0  0  0  0  0  0  0  0  0  0
   -3.5770   -2.5152   -0.5485 C   0  0  0  0  0  0  0  0  0  0  0  0
    0.3170   -0.3877    0.2543 N   0  0  0  0  0  0  0  0  0  0  0  0
    1.1390    0.6437    0.1150 C   0  0  0  0  0  0  0  0  0  0  0  0
    2.5133    0.4535    0.0540 N   0  0  0  0  0  0  0  0  0  0  0  0
    2.9836   -0.8037   -0.5155 C   0  0  0  0  0  0  0  0  0  0  0  0
    3.1700   -1.8413    0.5915 C   0  0  0  0  0  0  0  0  0  0  0  0
    4.3210   -0.5550   -1.2171 C   0  0  0  0  0  0  0  0  0  0  0  0
    0.7420    1.9012    0.0203 N   0  0  0  0  0  0  0  0  0  0  0  0
   -0.1044    5.7078    0.7487 H   0  0  0  0  0  0  0  0  0  0  0  0
    1.0608    4.5776    0.0408 H   0  0  0  0  0  0  0  0  0  0  0  0
    0.4021    4.2843    1.6765 H   0  0  0  0  0  0  0  0  0  0  0  0
   -1.2629   -2.0174    0.2374 H   0  0  0  0  0  0  0  0  0  0  0  0
   -3.1367   -0.4792   -1.0084 H   0  0  0  0  0  0  0  0  0  0  0  0
   -5.1463   -0.5255    0.4843 H   0  0  0  0  0  0  0  0  0  0  0  0
   -3.8718    0.4543    1.2188 H   0  0  0  0  0  0  0  0  0  0  0  0
   -4.1678   -1.1825    1.8091 H   0  0  0  0  0  0  0  0  0  0  0  0
   -2.8829   -2.9235   -1.2915 H   0  0  0  0  0  0  0  0  0  0  0  0
   -3.5994   -3.2092    0.2993 H   0  0  0  0  0  0  0  0  0  0  0  0
   -4.5755   -2.4918   -0.9977 H   0  0  0  0  0  0  0  0  0  0  0  0
    2.8993    1.2996   -0.3514 H   0  0  0  0  0  0  0  0  0  0  0  0
    2.2845   -1.1878   -1.2698 H   0  0  0  0  0  0  0  0  0  0  0  0
    3.5600   -2.7794    0.1827 H   0  0  0  0  0  0  0  0  0  0  0  0
    3.8716   -1.4859    1.3549 H   0  0  0  0  0  0  0  0  0  0  0  0
    2.2251   -2.0668    1.0958 H   0  0  0  0  0  0  0  0  0  0  0  0
    4.7112   -1.4802   -1.6539 H   0  0  0  0  0  0  0  0  0  0  0  0
    5.0711   -0.1623   -0.5212 H   0  0  0  0  0  0  0  0  0  0  0  0
    4.2050    0.1761   -2.0249 H   0  0  0  0  0  0  0  0  0  0  0  0
  1  2  1  0
  2  3  1  0
  3  4  2  0
  4  5  1  0
  5  6  1  0
  6  7  1  0
  7  8  1  0
  7  9  1  0
  5 10  2  0
 10 11  1  0
 11 12  1  0
 12 13  1  0
 13 14  1  0
 13 15  1  0
 11 16  2  0
 16  3  1  0
  1 17  1  0
  1 18  1  0
  1 19  1  0
  6 20  1  0
  7 21  1  0
  8 22  1  0
  8 23  1  0
  8 24  1  0
  9 25  1  0
  9 26  1  0
  9 27  1  0
 12 28  1  0
 13 29  1  0
 14 30  1  0
 14 31  1  0
 14 32  1  0
 15 33  1  0
 15 34  1  0
 15 35  1  0
M  END
$$$$
