OMPs000115
     RDKit          3D

 13 13  0  0  0  0  0  0  0  0999 V2000
    3.5133    0.9646   -0.3659 N   0  0  0  0  0  0  0  0  0  0  0  0
    2.3995    0.6589   -0.2499 C   0  0  0  0  0  0  0  0  0  0  0  0
    1.0241    0.2812   -0.1067 C   0  0  0  0  0  0  0  0  0  0  0  0
    0.0319    1.2637   -0.0165 C   0  0  0  0  0  0  0  0  0  0  0  0
   -1.3074    0.8943    0.1231 C   0  0  0  0  0  0  0  0  0  0  0  0
   -1.6573   -0.4551    0.1726 C   0  0  0  0  0  0  0  0  0  0  0  0
   -0.6713   -1.4376    0.0830 C   0  0  0  0  0  0  0  0  0  0  0  0
    0.6688   -1.0713   -0.0565 C   0  0  0  0  0  0  0  0  0  0  0  0
    0.2942    2.3192   -0.0541 H   0  0  0  0  0  0  0  0  0  0  0  0
   -2.0782    1.6582    0.1932 H   0  0  0  0  0  0  0  0  0  0  0  0
   -2.7009   -0.7416    0.2813 H   0  0  0  0  0  0  0  0  0  0  0  0
   -0.9470   -2.4888    0.1219 H   0  0  0  0  0  0  0  0  0  0  0  0
    1.4304   -1.8457   -0.1255 H   0  0  0  0  0  0  0  0  0  0  0  0
  1  2  3  0
  2  3  1  0
  3  4  2  0
  4  5  1  0
  5  6  2  0
  6  7  1  0
  7  8  2  0
  8  3  1  0
  4  9  1  0
  5 10  1  0
  6 11  1  0
  7 12  1  0
  8 13  1  0
M  END
$$$$
