OMPs000196
     RDKit          3D

  8  7  0  0  0  0  0  0  0  0999 V2000
    1.4873   -0.3438    0.5469 O   0  0  0  0  0  0  0  0  0  0  0  0
    0.5310    0.1762   -0.2590 C   0  0  0  0  0  0  0  0  0  0  0  0
    0.8643    0.7434   -1.2881 O   0  0  0  0  0  0  0  0  0  0  0  0
   -0.8636   -0.0748    0.2589 C   0  0  0  0  0  0  0  0  0  0  0  0
   -1.9101    1.5428    0.0427 Br  0  0  0  0  0  0  0  0  0  0  0  0
   -1.5785   -1.5932   -0.7084 Br  0  0  0  0  0  0  0  0  0  0  0  0
    2.3274   -0.1375    0.0821 H   0  0  0  0  0  0  0  0  0  0  0  0
   -0.8576   -0.3132    1.3249 H   0  0  0  0  0  0  0  0  0  0  0  0
  1  2  1  0
  2  3  2  0
  2  4  1  0
  4  5  1  0
  4  6  1  0
  1  7  1  0
  4  8  1  0
M  END
$$$$
