OMPs000211
     RDKit          3D

 45 48  0  0  0  0  0  0  0  0999 V2000
   -1.9058   -1.0969    1.7890 C   0  0  0  0  0  0  0  0  0  0  0  0
   -1.9405   -1.0665    0.2403 C   0  0  2  0  0  0  0  0  0  0  0  0
   -1.0433   -2.1822   -0.3090 C   0  0  0  0  0  0  0  0  0  0  0  0
    0.4495   -1.8914   -0.0624 C   0  0  0  0  0  0  0  0  0  0  0  0
    0.8982   -0.4871   -0.5488 C   0  0  1  0  0  0  0  0  0  0  0  0
   -0.0530    0.6269   -0.0149 C   0  0  1  0  0  0  0  0  0  0  0  0
    0.3867    1.9739   -0.5919 C   0  0  0  0  0  0  0  0  0  0  0  0
    1.7696    2.3386   -0.0607 C   0  0  0  0  0  0  0  0  0  0  0  0
    2.7605    1.1993   -0.0887 C   0  0  0  0  0  0  0  0  0  0  0  0
    4.1167    1.5055    0.1292 C   0  0  0  0  0  0  0  0  0  0  0  0
    5.0700    0.4951    0.1329 C   0  0  0  0  0  0  0  0  0  0  0  0
    6.3912    0.7616    0.3364 O   0  0  0  0  0  0  0  0  0  0  0  0
    4.6993   -0.8221   -0.0770 C   0  0  0  0  0  0  0  0  0  0  0  0
    3.3554   -1.1384   -0.2858 C   0  0  0  0  0  0  0  0  0  0  0  0
    2.3609   -0.1435   -0.2738 C   0  0  0  0  0  0  0  0  0  0  0  0
   -1.4902    0.2671   -0.3927 C   0  0  2  0  0  0  0  0  0  0  0  0
   -2.6210    1.2400   -0.0501 C   0  0  0  0  0  0  0  0  0  0  0  0
   -3.8838    0.3558   -0.0397 C   0  0  1  0  0  0  0  0  0  0  0  0
   -4.7865    0.7236   -1.0771 O   0  0  0  0  0  0  0  0  0  0  0  0
   -3.3921   -1.0954   -0.2686 C   0  0  2  0  0  0  0  0  0  0  0  0
   -4.2067   -2.0377    0.4107 O   0  0  0  0  0  0  0  0  0  0  0  0
   -2.2591   -2.0649    2.1632 H   0  0  0  0  0  0  0  0  0  0  0  0
   -2.5403   -0.3272    2.2389 H   0  0  0  0  0  0  0  0  0  0  0  0
   -0.8999   -0.9516    2.1917 H   0  0  0  0  0  0  0  0  0  0  0  0
   -1.1998   -2.2893   -1.3905 H   0  0  0  0  0  0  0  0  0  0  0  0
   -1.3090   -3.1483    0.1366 H   0  0  0  0  0  0  0  0  0  0  0  0
    0.6823   -2.0066    1.0030 H   0  0  0  0  0  0  0  0  0  0  0  0
    1.0170   -2.6712   -0.5835 H   0  0  0  0  0  0  0  0  0  0  0  0
    0.8117   -0.4994   -1.6465 H   0  0  0  0  0  0  0  0  0  0  0  0
    0.0328    0.6919    1.0775 H   0  0  0  0  0  0  0  0  0  0  0  0
    0.4084    1.9246   -1.6882 H   0  0  0  0  0  0  0  0  0  0  0  0
   -0.3160    2.7703   -0.3228 H   0  0  0  0  0  0  0  0  0  0  0  0
    1.6749    2.6750    0.9798 H   0  0  0  0  0  0  0  0  0  0  0  0
    2.1575    3.1821   -0.6448 H   0  0  0  0  0  0  0  0  0  0  0  0
    4.4111    2.5383    0.2924 H   0  0  0  0  0  0  0  0  0  0  0  0
    6.4957    1.7177    0.4681 H   0  0  0  0  0  0  0  0  0  0  0  0
    5.4521   -1.6049   -0.0832 H   0  0  0  0  0  0  0  0  0  0  0  0
    3.1077   -2.1806   -0.4648 H   0  0  0  0  0  0  0  0  0  0  0  0
   -1.5120    0.1574   -1.4902 H   0  0  0  0  0  0  0  0  0  0  0  0
   -2.6850    2.0576   -0.7752 H   0  0  0  0  0  0  0  0  0  0  0  0
   -2.4617    1.6777    0.9419 H   0  0  0  0  0  0  0  0  0  0  0  0
   -4.4232    0.4516    0.9092 H   0  0  0  0  0  0  0  0  0  0  0  0
   -5.0481    1.6473   -0.9178 H   0  0  0  0  0  0  0  0  0  0  0  0
   -3.4290   -1.3459   -1.3369 H   0  0  0  0  0  0  0  0  0  0  0  0
   -5.1035   -1.9280    0.0448 H   0  0  0  0  0  0  0  0  0  0  0  0
  2  1  1  1
  2  3  1  0
  3  4  1  0
  4  5  1  0
  5  6  1  0
  6  7  1  0
  7  8  1  0
  8  9  1  0
  9 10  2  0
 10 11  1  0
 11 12  1  0
 11 13  2  0
 13 14  1  0
 14 15  2  0
  6 16  1  0
 16 17  1  0
 17 18  1  0
 18 19  1  0
 18 20  1  0
 20 21  1  0
 16  2  1  0
 20  2  1  0
 15  5  1  0
 15  9  1  0
  1 22  1  0
  1 23  1  0
  1 24  1  0
  3 25  1  0
  3 26  1  0
  4 27  1  0
  4 28  1  0
  5 29  1  6
  6 30  1  1
  7 31  1  0
  7 32  1  0
  8 33  1  0
  8 34  1  0
 10 35  1  0
 12 36  1  0
 13 37  1  0
 14 38  1  0
 16 39  1  6
 17 40  1  0
 17 41  1  0
 18 42  1  1
 19 43  1  0
 20 44  1  6
 21 45  1  0
M  END
$$$$
