OMPs000137
     RDKit          3D

 53 52  0  0  0  0  0  0  0  0999 V2000
   -0.0429    0.3955    0.0000 O   0  0  0  0  0  0  0  0  0  0  0  0
   -0.0383    0.3960    0.0000 O   0  0  0  0  0  0  0  0  0  0  0  0
   -0.0455    0.3952    0.0000 O   0  0  0  0  0  0  0  0  0  0  0  0
    3.8717   -2.3247   -1.7878 C   0  0  0  0  0  0  0  0  0  0  0  0
    2.9219   -1.3848   -1.0347 C   0  0  0  0  0  0  0  0  0  0  0  0
    1.8339   -0.9080   -2.0126 C   0  0  0  0  0  0  0  0  0  0  0  0
    2.0797   -2.3593    0.3009 S   0  0  0  0  0  0  0  0  0  0  0  0
    2.2786   -1.0532    1.5825 C   0  0  2  0  0  0  0  0  0  0  0  0
    1.0403   -0.1630    1.8633 C   0  0  2  0  0  0  0  0  0  0  0  0
   -0.2736   -0.6774    1.4095 N   0  0  0  0  0  0  0  0  0  0  0  0
   -1.4309    0.0605    1.5758 C   0  0  0  0  0  0  0  0  0  0  0  0
   -1.4986    1.0080    2.3531 O   0  0  0  0  0  0  0  0  0  0  0  0
   -2.6121   -0.4563    0.7106 C   0  0  2  0  0  0  0  0  0  0  0  0
   -2.0877   -1.2710   -0.4222 N   0  0  0  0  0  0  0  0  0  0  0  0
   -3.5170    0.6369    0.1734 C   0  0  0  0  0  0  0  0  0  0  0  0
   -2.9995    1.8407   -0.3372 C   0  0  0  0  0  0  0  0  0  0  0  0
   -3.8487    2.8163   -0.8659 C   0  0  0  0  0  0  0  0  0  0  0  0
   -5.2191    2.5860   -0.8990 C   0  0  0  0  0  0  0  0  0  0  0  0
   -6.0827    3.5108   -1.4066 O   0  0  0  0  0  0  0  0  0  0  0  0
   -5.7524    1.3989   -0.4144 C   0  0  0  0  0  0  0  0  0  0  0  0
   -4.9051    0.4253    0.1182 C   0  0  0  0  0  0  0  0  0  0  0  0
    1.7361    0.8298    0.8876 C   0  0  0  0  0  0  0  0  0  0  0  0
    1.4273    1.7882    0.2179 O   0  0  0  0  0  0  0  0  0  0  0  0
    2.8870    0.0924    0.8907 N   0  0  0  0  0  0  0  0  0  0  0  0
    3.6116   -0.1867   -0.3428 C   0  0  1  0  0  0  0  0  0  0  0  0
    5.0684   -0.4445    0.0343 C   0  0  0  0  0  0  0  0  0  0  0  0
    5.9293   -0.0695   -0.9364 O   0  0  0  0  0  0  0  0  0  0  0  0
    5.4909   -0.9513    1.0617 O   0  0  0  0  0  0  0  0  0  0  0  0
   -0.7376   -0.2800    0.0000 H   0  0  0  0  0  0  0  0  0  0  0  0
    0.7805   -0.1155    0.0000 H   0  0  0  0  0  0  0  0  0  0  0  0
   -0.7408   -0.2715    0.0000 H   0  0  0  0  0  0  0  0  0  0  0  0
    0.7791   -0.1244    0.0000 H   0  0  0  0  0  0  0  0  0  0  0  0
   -0.7357   -0.2849    0.0000 H   0  0  0  0  0  0  0  0  0  0  0  0
    0.7812   -0.1104    0.0000 H   0  0  0  0  0  0  0  0  0  0  0  0
    4.6152   -2.7860   -1.1281 H   0  0  0  0  0  0  0  0  0  0  0  0
    4.4115   -1.7822   -2.5725 H   0  0  0  0  0  0  0  0  0  0  0  0
    3.3260   -3.1394   -2.2794 H   0  0  0  0  0  0  0  0  0  0  0  0
    1.0688   -0.2924   -1.5299 H   0  0  0  0  0  0  0  0  0  0  0  0
    2.2776   -0.3050   -2.8136 H   0  0  0  0  0  0  0  0  0  0  0  0
    1.3214   -1.7519   -2.4902 H   0  0  0  0  0  0  0  0  0  0  0  0
    2.8398   -1.3636    2.4687 H   0  0  0  0  0  0  0  0  0  0  0  0
    0.9987    0.2111    2.8932 H   0  0  0  0  0  0  0  0  0  0  0  0
   -0.3325   -1.3709    0.6608 H   0  0  0  0  0  0  0  0  0  0  0  0
   -3.1831   -1.1218    1.3704 H   0  0  0  0  0  0  0  0  0  0  0  0
   -1.7027   -0.6185   -1.1095 H   0  0  0  0  0  0  0  0  0  0  0  0
   -2.8957   -1.6834   -0.8926 H   0  0  0  0  0  0  0  0  0  0  0  0
   -1.9282    2.0385   -0.3144 H   0  0  0  0  0  0  0  0  0  0  0  0
   -3.4222    3.7414   -1.2409 H   0  0  0  0  0  0  0  0  0  0  0  0
   -5.5762    4.3042   -1.6461 H   0  0  0  0  0  0  0  0  0  0  0  0
   -6.8254    1.2328   -0.4481 H   0  0  0  0  0  0  0  0  0  0  0  0
   -5.3388   -0.4994    0.4927 H   0  0  0  0  0  0  0  0  0  0  0  0
    3.5824    0.7138   -0.9692 H   0  0  0  0  0  0  0  0  0  0  0  0
    6.8143   -0.2713   -0.5627 H   0  0  0  0  0  0  0  0  0  0  0  0
  4  5  1  0
  5  6  1  0
  5  7  1  0
  7  8  1  0
  8  9  1  0
  9 10  1  0
 10 11  1  0
 11 12  2  0
 11 13  1  0
 13 14  1  0
 13 15  1  0
 15 16  2  0
 16 17  1  0
 17 18  2  0
 18 19  1  0
 18 20  1  0
 20 21  2  0
  9 22  1  0
 22 23  2  0
 22 24  1  0
 24 25  1  0
 25 26  1  0
 26 27  1  0
 26 28  2  0
 25  5  1  0
 24  8  1  0
 21 15  1  0
  1 29  1  0
  1 30  1  0
  2 31  1  0
  2 32  1  0
  3 33  1  0
  3 34  1  0
  4 35  1  0
  4 36  1  0
  4 37  1  0
  6 38  1  0
  6 39  1  0
  6 40  1  0
  8 41  1  1
  9 42  1  1
 10 43  1  0
 13 44  1  1
 14 45  1  0
 14 46  1  0
 16 47  1  0
 17 48  1  0
 19 49  1  0
 20 50  1  0
 21 51  1  0
 25 52  1  6
 27 53  1  0
M  END
$$$$
