OMPs000002
     RDKit          3D

 25 25  0  0  0  0  0  0  0  0999 V2000
   -4.6383    0.2336    0.4895 C   0  0  0  0  0  0  0  0  0  0  0  0
   -3.1569    0.5536    0.5748 C   0  0  0  0  0  0  0  0  0  0  0  0
   -2.3131   -0.4577   -0.1912 C   0  0  0  0  0  0  0  0  0  0  0  0
   -0.9367   -0.0787   -0.0561 O   0  0  0  0  0  0  0  0  0  0  0  0
   -0.0682   -0.9015   -0.6957 C   0  0  0  0  0  0  0  0  0  0  0  0
   -0.3690   -1.8912   -1.3442 O   0  0  0  0  0  0  0  0  0  0  0  0
    1.3328   -0.4361   -0.5038 C   0  0  0  0  0  0  0  0  0  0  0  0
    2.3633   -1.1757   -1.1011 C   0  0  0  0  0  0  0  0  0  0  0  0
    3.6933   -0.7785   -0.9494 C   0  0  0  0  0  0  0  0  0  0  0  0
    3.9926    0.3551   -0.2026 C   0  0  0  0  0  0  0  0  0  0  0  0
    5.3039    0.7055   -0.0811 O   0  0  0  0  0  0  0  0  0  0  0  0
    2.9838    1.1022    0.3979 C   0  0  0  0  0  0  0  0  0  0  0  0
    1.6511    0.7060    0.2471 C   0  0  0  0  0  0  0  0  0  0  0  0
   -4.9826    0.2443   -0.5496 H   0  0  0  0  0  0  0  0  0  0  0  0
   -4.8513   -0.7534    0.9121 H   0  0  0  0  0  0  0  0  0  0  0  0
   -5.2193    0.9746    1.0474 H   0  0  0  0  0  0  0  0  0  0  0  0
   -2.8405    0.5760    1.6246 H   0  0  0  0  0  0  0  0  0  0  0  0
   -2.9700    1.5604    0.1824 H   0  0  0  0  0  0  0  0  0  0  0  0
   -2.4585   -1.4619    0.2241 H   0  0  0  0  0  0  0  0  0  0  0  0
   -2.5910   -0.4545   -1.2518 H   0  0  0  0  0  0  0  0  0  0  0  0
    2.1350   -2.0641   -1.6870 H   0  0  0  0  0  0  0  0  0  0  0  0
    4.4917   -1.3520   -1.4126 H   0  0  0  0  0  0  0  0  0  0  0  0
    5.3657    1.5087    0.4615 H   0  0  0  0  0  0  0  0  0  0  0  0
    3.2113    1.9884    0.9824 H   0  0  0  0  0  0  0  0  0  0  0  0
    0.8709    1.2971    0.7206 H   0  0  0  0  0  0  0  0  0  0  0  0
  1  2  1  0
  2  3  1  0
  3  4  1  0
  4  5  1  0
  5  6  2  0
  5  7  1  0
  7  8  2  0
  8  9  1  0
  9 10  2  0
 10 11  1  0
 10 12  1  0
 12 13  2  0
 13  7  1  0
  1 14  1  0
  1 15  1  0
  1 16  1  0
  2 17  1  0
  2 18  1  0
  3 19  1  0
  3 20  1  0
  8 21  1  0
  9 22  1  0
 11 23  1  0
 12 24  1  0
 13 25  1  0
M  END
$$$$
