OMPs000136
     RDKit          3D

 41 43  0  0  0  0  0  0  0  0999 V2000
   -5.0719    3.4409   -0.0854 C   0  0  0  0  0  0  0  0  0  0  0  0
   -4.6411    2.1439    0.3076 O   0  0  0  0  0  0  0  0  0  0  0  0
   -3.3292    1.8311    0.0727 C   0  0  0  0  0  0  0  0  0  0  0  0
   -2.3727    2.6769   -0.4743 C   0  0  0  0  0  0  0  0  0  0  0  0
   -1.0539    2.2441   -0.6657 C   0  0  0  0  0  0  0  0  0  0  0  0
   -0.7031    0.9282   -0.3043 C   0  0  0  0  0  0  0  0  0  0  0  0
    0.5267    0.2593   -0.3423 N   0  0  0  0  0  0  0  0  0  0  0  0
    0.3091   -1.0606    0.0700 C   0  0  0  0  0  0  0  0  0  0  0  0
    1.3223   -2.1530   -0.0454 C   0  0  0  0  0  0  0  0  0  0  0  0
   -1.0058   -1.1798    0.5017 C   0  0  0  0  0  0  0  0  0  0  0  0
   -1.6656   -2.4007    1.0746 C   0  0  0  0  0  0  0  0  0  0  0  0
   -2.3151   -3.2664    0.0206 C   0  0  0  0  0  0  0  0  0  0  0  0
   -3.2603   -4.0777    0.5457 O   0  0  0  0  0  0  0  0  0  0  0  0
   -2.0516   -3.3365   -1.1682 O   0  0  0  0  0  0  0  0  0  0  0  0
   -1.6482    0.0662    0.2513 C   0  0  0  0  0  0  0  0  0  0  0  0
   -2.9700    0.5290    0.4375 C   0  0  0  0  0  0  0  0  0  0  0  0
    1.7583    0.8477   -0.7372 C   0  0  0  0  0  0  0  0  0  0  0  0
    1.7277    1.8128   -1.5001 O   0  0  0  0  0  0  0  0  0  0  0  0
    3.0948    0.4161   -0.2698 C   0  0  0  0  0  0  0  0  0  0  0  0
    4.1432    0.3234   -1.1932 C   0  0  0  0  0  0  0  0  0  0  0  0
    5.4179   -0.0508   -0.7622 C   0  0  0  0  0  0  0  0  0  0  0  0
    5.6430   -0.3119    0.5895 C   0  0  0  0  0  0  0  0  0  0  0  0
    7.2129   -0.7732    1.1197 Cl  0  0  0  0  0  0  0  0  0  0  0  0
    4.6070   -0.1941    1.5170 C   0  0  0  0  0  0  0  0  0  0  0  0
    3.3299    0.1792    1.0901 C   0  0  0  0  0  0  0  0  0  0  0  0
   -6.1375    3.5242    0.1490 H   0  0  0  0  0  0  0  0  0  0  0  0
   -4.5458    4.2186    0.4780 H   0  0  0  0  0  0  0  0  0  0  0  0
   -4.9563    3.5862   -1.1647 H   0  0  0  0  0  0  0  0  0  0  0  0
   -2.6109    3.6943   -0.7676 H   0  0  0  0  0  0  0  0  0  0  0  0
   -0.3244    2.9289   -1.0903 H   0  0  0  0  0  0  0  0  0  0  0  0
    1.9777   -2.0137   -0.9094 H   0  0  0  0  0  0  0  0  0  0  0  0
    1.9218   -2.2255    0.8657 H   0  0  0  0  0  0  0  0  0  0  0  0
    0.8299   -3.1209   -0.1885 H   0  0  0  0  0  0  0  0  0  0  0  0
   -2.4321   -2.0902    1.7944 H   0  0  0  0  0  0  0  0  0  0  0  0
   -0.9351   -3.0128    1.6149 H   0  0  0  0  0  0  0  0  0  0  0  0
   -3.5899   -4.5791   -0.2303 H   0  0  0  0  0  0  0  0  0  0  0  0
   -3.7248   -0.1281    0.8610 H   0  0  0  0  0  0  0  0  0  0  0  0
    3.9698    0.5450   -2.2447 H   0  0  0  0  0  0  0  0  0  0  0  0
    6.2294   -0.1281   -1.4816 H   0  0  0  0  0  0  0  0  0  0  0  0
    4.7903   -0.3832    2.5719 H   0  0  0  0  0  0  0  0  0  0  0  0
    2.5337    0.2902    1.8230 H   0  0  0  0  0  0  0  0  0  0  0  0
  1  2  1  0
  2  3  1  0
  3  4  2  0
  4  5  1  0
  5  6  2  0
  6  7  1  0
  7  8  1  0
  8  9  1  0
  8 10  2  0
 10 11  1  0
 11 12  1  0
 12 13  1  0
 12 14  2  0
 10 15  1  0
 15 16  2  0
  7 17  1  0
 17 18  2  0
 17 19  1  0
 19 20  2  0
 20 21  1  0
 21 22  2  0
 22 23  1  0
 22 24  1  0
 24 25  2  0
 16  3  1  0
 15  6  1  0
 25 19  1  0
  1 26  1  0
  1 27  1  0
  1 28  1  0
  4 29  1  0
  5 30  1  0
  9 31  1  0
  9 32  1  0
  9 33  1  0
 11 34  1  0
 11 35  1  0
 13 36  1  0
 16 37  1  0
 20 38  1  0
 21 39  1  0
 24 40  1  0
 25 41  1  0
M  END
$$$$
