OMPs000153
     RDKit          3D

 24 23  0  0  0  0  0  0  0  0999 V2000
    3.9866   -0.1194    0.0400 C   0  0  0  0  0  0  0  0  0  0  0  0
    2.6634   -0.7323   -0.3902 C   0  0  0  0  0  0  0  0  0  0  0  0
    1.4826    0.1602   -0.0092 C   0  0  0  0  0  0  0  0  0  0  0  0
    0.1536   -0.4600   -0.4437 C   0  0  0  0  0  0  0  0  0  0  0  0
   -1.0281    0.4327   -0.0626 C   0  0  0  0  0  0  0  0  0  0  0  0
   -2.3492   -0.1896   -0.4981 C   0  0  0  0  0  0  0  0  0  0  0  0
   -3.7638    0.8283   -0.0985 S   0  0  0  0  0  6  0  0  0  0  0  0
   -3.5378    2.1620   -0.6191 O   0  0  0  0  0  0  0  0  0  0  0  0
   -4.9645    0.0861   -0.4289 O   0  0  0  0  0  0  0  0  0  0  0  0
   -3.5820    0.8564    1.5243 O   0  0  0  0  0  0  0  0  0  0  0  0
   -3.7280   -0.4378    2.0876 F   0  0  0  0  0  0  0  0  0  0  0  0
    4.1425    0.8528   -0.4383 H   0  0  0  0  0  0  0  0  0  0  0  0
    4.8171   -0.7739   -0.2422 H   0  0  0  0  0  0  0  0  0  0  0  0
    4.0190    0.0220    1.1251 H   0  0  0  0  0  0  0  0  0  0  0  0
    2.6762   -0.8903   -1.4749 H   0  0  0  0  0  0  0  0  0  0  0  0
    2.5534   -1.7165    0.0798 H   0  0  0  0  0  0  0  0  0  0  0  0
    1.5996    1.1446   -0.4785 H   0  0  0  0  0  0  0  0  0  0  0  0
    1.4769    0.3184    1.0762 H   0  0  0  0  0  0  0  0  0  0  0  0
    0.1595   -0.6181   -1.5291 H   0  0  0  0  0  0  0  0  0  0  0  0
    0.0366   -1.4442    0.0261 H   0  0  0  0  0  0  0  0  0  0  0  0
   -1.0288    0.5953    1.0215 H   0  0  0  0  0  0  0  0  0  0  0  0
   -0.9094    1.4180   -0.5289 H   0  0  0  0  0  0  0  0  0  0  0  0
   -2.3702   -0.3286   -1.5844 H   0  0  0  0  0  0  0  0  0  0  0  0
   -2.5054   -1.1659   -0.0281 H   0  0  0  0  0  0  0  0  0  0  0  0
  1  2  1  0
  2  3  1  0
  3  4  1  0
  4  5  1  0
  5  6  1  0
  6  7  1  0
  7  8  2  0
  7  9  2  0
  7 10  1  0
 10 11  1  0
  1 12  1  0
  1 13  1  0
  1 14  1  0
  2 15  1  0
  2 16  1  0
  3 17  1  0
  3 18  1  0
  4 19  1  0
  4 20  1  0
  5 21  1  0
  5 22  1  0
  6 23  1  0
  6 24  1  0
M  END
$$$$
