OMPs000222
     RDKit          3D

 26 27  0  0  0  0  0  0  0  0999 V2000
   -3.5926    1.1658    0.8920 O   0  0  0  0  0  0  0  0  0  0  0  0
   -3.3750    0.4542   -0.5397 S   0  0  0  0  0  6  0  0  0  0  0  0
   -3.2727    1.4838   -1.5487 O   0  0  0  0  0  0  0  0  0  0  0  0
   -4.4094   -0.5580   -0.5953 O   0  0  0  0  0  0  0  0  0  0  0  0
   -1.7921   -0.3555   -0.4108 C   0  0  0  0  0  0  0  0  0  0  0  0
   -1.7734   -1.7330   -0.6644 C   0  0  0  0  0  0  0  0  0  0  0  0
   -0.5856   -2.4324   -0.5547 C   0  0  0  0  0  0  0  0  0  0  0  0
    0.5810   -1.7588   -0.1980 C   0  0  0  0  0  0  0  0  0  0  0  0
    0.6120   -0.3617    0.0537 C   0  0  0  0  0  0  0  0  0  0  0  0
   -0.6120    0.3617   -0.0537 C   0  0  0  0  0  0  0  0  0  0  0  0
   -0.5810    1.7588    0.1980 C   0  0  0  0  0  0  0  0  0  0  0  0
    0.5856    2.4324    0.5547 C   0  0  0  0  0  0  0  0  0  0  0  0
    1.7734    1.7330    0.6644 C   0  0  0  0  0  0  0  0  0  0  0  0
    1.7921    0.3555    0.4108 C   0  0  0  0  0  0  0  0  0  0  0  0
    3.3750   -0.4542    0.5397 S   0  0  0  0  0  6  0  0  0  0  0  0
    3.5927   -1.1658   -0.8920 O   0  0  0  0  0  0  0  0  0  0  0  0
    3.2727   -1.4838    1.5487 O   0  0  0  0  0  0  0  0  0  0  0  0
    4.4094    0.5580    0.5953 O   0  0  0  0  0  0  0  0  0  0  0  0
   -4.4013    0.7789    1.2906 H   0  0  0  0  0  0  0  0  0  0  0  0
   -2.6783   -2.2696   -0.9432 H   0  0  0  0  0  0  0  0  0  0  0  0
   -0.5592   -3.5038   -0.7413 H   0  0  0  0  0  0  0  0  0  0  0  0
    1.4795   -2.3690   -0.1173 H   0  0  0  0  0  0  0  0  0  0  0  0
   -1.4795    2.3690    0.1173 H   0  0  0  0  0  0  0  0  0  0  0  0
    0.5592    3.5038    0.7413 H   0  0  0  0  0  0  0  0  0  0  0  0
    2.6783    2.2696    0.9432 H   0  0  0  0  0  0  0  0  0  0  0  0
    4.4013   -0.7789   -1.2906 H   0  0  0  0  0  0  0  0  0  0  0  0
  1  2  1  0
  2  3  2  0
  2  4  2  0
  2  5  1  0
  5  6  2  0
  6  7  1  0
  7  8  2  0
  8  9  1  0
  9 10  2  0
 10 11  1  0
 11 12  2  0
 12 13  1  0
 13 14  2  0
 14 15  1  0
 15 16  1  0
 15 17  2  0
 15 18  2  0
 10  5  1  0
 14  9  1  0
  1 19  1  0
  6 20  1  0
  7 21  1  0
  8 22  1  0
 11 23  1  0
 12 24  1  0
 13 25  1  0
 16 26  1  0
M  END
$$$$
