OMPs000013
     RDKit          3D

 11 10  0  0  0  0  0  0  0  0999 V2000
   -1.2837    0.4117    0.1435 C   0  0  0  0  0  0  0  0  0  0  0  0
   -0.2824   -0.5583    0.7370 C   0  0  0  0  0  0  0  0  0  0  0  0
    1.0905   -0.3197    0.1812 C   0  0  0  0  0  0  0  0  0  0  0  0
    1.7061    0.7362    0.7452 O   0  0  0  0  0  0  0  0  0  0  0  0
    1.6373   -0.9676   -0.6950 O   0  0  0  0  0  0  0  0  0  0  0  0
   -1.0227    1.4469    0.3873 H   0  0  0  0  0  0  0  0  0  0  0  0
   -1.3142    0.3253   -0.9477 H   0  0  0  0  0  0  0  0  0  0  0  0
   -2.2866    0.2113    0.5324 H   0  0  0  0  0  0  0  0  0  0  0  0
   -0.2471   -0.4728    1.8284 H   0  0  0  0  0  0  0  0  0  0  0  0
   -0.5697   -1.5906    0.5088 H   0  0  0  0  0  0  0  0  0  0  0  0
    2.5724    0.7776    0.2886 H   0  0  0  0  0  0  0  0  0  0  0  0
  1  2  1  0
  2  3  1  0
  3  4  1  0
  3  5  2  0
  1  6  1  0
  1  7  1  0
  1  8  1  0
  2  9  1  0
  2 10  1  0
  4 11  1  0
M  END
$$$$
