OMPs000130
     RDKit          3D

 37 38  0  0  0  0  0  0  0  0999 V2000
    0.0000    0.0000    0.0000 Cl  0  0  0  0  0  0  0  0  0  0  0  0
    5.5570   -0.6980   -0.0350 C   0  0  0  0  0  0  0  0  0  0  0  0
    4.4454    0.2132   -0.3194 N   0  0  0  0  0  0  0  0  0  0  0  0
    4.7602    1.6404   -0.2095 C   0  0  0  0  0  0  0  0  0  0  0  0
    3.1296   -0.2271   -0.2002 C   0  0  0  0  0  0  0  0  0  0  0  0
    2.8099   -1.5947   -0.1363 C   0  0  0  0  0  0  0  0  0  0  0  0
    1.4903   -2.0476   -0.0444 C   0  0  0  0  0  0  0  0  0  0  0  0
    0.4508   -1.1218   -0.0212 C   0  0  0  0  0  0  0  0  0  0  0  0
   -0.8341   -1.5166    0.0637 N   0  0  0  0  0  0  0  0  0  0  0  0
   -1.8630   -0.6475    0.0862 C   0  0  0  0  0  0  0  0  0  0  0  0
   -3.1838   -1.0947    0.1887 C   0  0  0  0  0  0  0  0  0  0  0  0
   -4.2384   -0.1698    0.2188 C   0  0  0  0  0  0  0  0  0  0  0  0
   -5.6519   -0.6681    0.3768 C   0  0  0  0  0  0  0  0  0  0  0  0
   -3.9570    1.2031    0.1017 C   0  0  0  0  0  0  0  0  0  0  0  0
   -4.9555    2.1657    0.2635 N   0  0  0  0  0  0  0  0  0  0  0  0
   -2.6184    1.6232    0.0474 C   0  0  0  0  0  0  0  0  0  0  0  0
   -1.5615    0.7254    0.0177 C   0  0  0  0  0  0  0  0  0  0  0  0
   -0.2894    1.1556   -0.0666 N   0  0  0  0  0  0  0  0  0  0  0  0
    0.7130    0.2572   -0.0883 C   0  0  0  0  0  0  0  0  0  0  0  0
    2.0400    0.6673   -0.1796 C   0  0  0  0  0  0  0  0  0  0  0  0
    5.4994   -1.0747    0.9921 H   0  0  0  0  0  0  0  0  0  0  0  0
    5.5639   -1.5399   -0.7355 H   0  0  0  0  0  0  0  0  0  0  0  0
    6.5266   -0.2007   -0.1494 H   0  0  0  0  0  0  0  0  0  0  0  0
    5.8275    1.8298   -0.3692 H   0  0  0  0  0  0  0  0  0  0  0  0
    4.5007    2.0210    0.7844 H   0  0  0  0  0  0  0  0  0  0  0  0
    4.2337    2.2204   -0.9752 H   0  0  0  0  0  0  0  0  0  0  0  0
    3.5947   -2.3483   -0.1661 H   0  0  0  0  0  0  0  0  0  0  0  0
    1.3090   -3.1178    0.0012 H   0  0  0  0  0  0  0  0  0  0  0  0
   -1.0349   -2.5113    0.1149 H   0  0  0  0  0  0  0  0  0  0  0  0
   -3.4075   -2.1564    0.2621 H   0  0  0  0  0  0  0  0  0  0  0  0
   -5.6858   -1.7588    0.4704 H   0  0  0  0  0  0  0  0  0  0  0  0
   -6.1055   -0.2463    1.2795 H   0  0  0  0  0  0  0  0  0  0  0  0
   -6.2500   -0.3928   -0.4978 H   0  0  0  0  0  0  0  0  0  0  0  0
   -4.7352    3.0953   -0.0858 H   0  0  0  0  0  0  0  0  0  0  0  0
   -5.8977    1.8861    0.0064 H   0  0  0  0  0  0  0  0  0  0  0  0
   -2.3903    2.6883    0.0281 H   0  0  0  0  0  0  0  0  0  0  0  0
    2.2081    1.7407   -0.2372 H   0  0  0  0  0  0  0  0  0  0  0  0
  2  3  1  0
  3  4  1  0
  3  5  1  0
  5  6  2  0
  6  7  1  0
  7  8  2  0
  8  9  1  0
  9 10  2  0
 10 11  1  0
 11 12  2  0
 12 13  1  0
 12 14  1  0
 14 15  1  0
 14 16  2  0
 16 17  1  0
 17 18  2  0
 18 19  1  0
 19 20  2  0
 20  5  1  0
 19  8  1  0
 17 10  1  0
  2 21  1  0
  2 22  1  0
  2 23  1  0
  4 24  1  0
  4 25  1  0
  4 26  1  0
  6 27  1  0
  7 28  1  0
  9 29  1  0
 11 30  1  0
 13 31  1  0
 13 32  1  0
 13 33  1  0
 15 34  1  0
 15 35  1  0
 16 36  1  0
 20 37  1  0
M  CHG  2   1  -1   9   1
M  END
$$$$
