OMPs000099
     RDKit          3D

 17 16  0  0  0  0  0  0  0  0999 V2000
    2.3951    0.5016    0.3026 C   0  0  0  0  0  0  0  0  0  0  0  0
    0.8745    0.6244    0.3942 C   0  0  0  0  0  0  0  0  0  0  0  0
    0.1992   -0.6754    0.2491 N   0  0  0  0  0  0  0  0  0  0  0  0
   -1.1729   -0.6401    0.7975 C   0  0  0  0  0  0  0  0  0  0  0  0
   -2.1450    0.2996    0.0850 C   0  0  0  0  0  0  0  0  0  0  0  0
    0.3066   -1.1855   -0.9609 N   0  0  0  0  0  0  0  0  0  0  0  0
   -0.0494   -2.3687   -0.9846 O   0  0  0  0  0  0  0  0  0  0  0  0
    2.7179    0.1708   -0.6898 H   0  0  0  0  0  0  0  0  0  0  0  0
    2.8598    1.4742    0.4955 H   0  0  0  0  0  0  0  0  0  0  0  0
    2.7782   -0.2063    1.0454 H   0  0  0  0  0  0  0  0  0  0  0  0
    0.6523    1.0480    1.3822 H   0  0  0  0  0  0  0  0  0  0  0  0
    0.5214    1.3498   -0.3506 H   0  0  0  0  0  0  0  0  0  0  0  0
   -1.6029   -1.6509    0.8069 H   0  0  0  0  0  0  0  0  0  0  0  0
   -1.1216   -0.3532    1.8561 H   0  0  0  0  0  0  0  0  0  0  0  0
   -3.1329    0.2336    0.5530 H   0  0  0  0  0  0  0  0  0  0  0  0
   -1.8204    1.3426    0.1490 H   0  0  0  0  0  0  0  0  0  0  0  0
   -2.2601    0.0353   -0.9710 H   0  0  0  0  0  0  0  0  0  0  0  0
  1  2  1  0
  2  3  1  0
  3  4  1  0
  4  5  1  0
  3  6  1  0
  6  7  2  0
  1  8  1  0
  1  9  1  0
  1 10  1  0
  2 11  1  0
  2 12  1  0
  4 13  1  0
  4 14  1  0
  5 15  1  0
  5 16  1  0
  5 17  1  0
M  END
$$$$
