OMPs000151
     RDKit          3D

 32 31  0  0  0  0  0  0  0  0999 V2000
   -4.8918    0.3426   -1.0094 C   0  0  0  0  0  0  0  0  0  0  0  0
   -3.4149    0.0286   -0.8244 C   0  0  0  0  0  0  0  0  0  0  0  0
   -2.7553    1.0057    0.1495 C   0  0  0  0  0  0  0  0  0  0  0  0
   -1.2431    0.8003    0.2857 C   0  0  0  0  0  0  0  0  0  0  0  0
   -0.8699   -0.5457    0.9127 C   0  0  0  0  0  0  0  0  0  0  0  0
    0.6187   -0.6612    1.2571 C   0  0  0  0  0  0  0  0  0  0  0  0
    1.5298   -0.6412    0.0272 C   0  0  0  0  0  0  0  0  0  0  0  0
    2.9932   -0.8700    0.4195 C   0  0  0  0  0  0  0  0  0  0  0  0
    3.9229   -0.9031   -0.7900 C   0  0  0  0  0  0  0  0  0  0  0  0
    4.0516    0.4427   -1.4556 C   0  0  0  0  0  0  0  0  0  0  0  0
    3.5597    0.7234   -2.5402 O   0  0  0  0  0  0  0  0  0  0  0  0
    4.7852    1.2893   -0.6855 O   0  0  0  0  0  0  0  0  0  0  0  0
    4.9189    2.5652   -1.2895 F   0  0  0  0  0  0  0  0  0  0  0  0
   -5.3460   -0.3688   -1.7062 H   0  0  0  0  0  0  0  0  0  0  0  0
   -5.0314    1.3501   -1.4142 H   0  0  0  0  0  0  0  0  0  0  0  0
   -5.4288    0.2765   -0.0578 H   0  0  0  0  0  0  0  0  0  0  0  0
   -3.3190   -0.9986   -0.4569 H   0  0  0  0  0  0  0  0  0  0  0  0
   -2.9130    0.0760   -1.7976 H   0  0  0  0  0  0  0  0  0  0  0  0
   -2.9306    2.0316   -0.1980 H   0  0  0  0  0  0  0  0  0  0  0  0
   -3.2283    0.9225    1.1356 H   0  0  0  0  0  0  0  0  0  0  0  0
   -0.7787    0.8992   -0.7020 H   0  0  0  0  0  0  0  0  0  0  0  0
   -0.8431    1.6099    0.9083 H   0  0  0  0  0  0  0  0  0  0  0  0
   -1.1461   -1.3656    0.2401 H   0  0  0  0  0  0  0  0  0  0  0  0
   -1.4456   -0.6836    1.8361 H   0  0  0  0  0  0  0  0  0  0  0  0
    0.7709   -1.6018    1.8011 H   0  0  0  0  0  0  0  0  0  0  0  0
    0.9019    0.1480    1.9412 H   0  0  0  0  0  0  0  0  0  0  0  0
    1.2129   -1.4196   -0.6772 H   0  0  0  0  0  0  0  0  0  0  0  0
    1.4370    0.3214   -0.4868 H   0  0  0  0  0  0  0  0  0  0  0  0
    3.3111   -0.0885    1.1201 H   0  0  0  0  0  0  0  0  0  0  0  0
    3.0776   -1.8274    0.9479 H   0  0  0  0  0  0  0  0  0  0  0  0
    4.9258   -1.2314   -0.4923 H   0  0  0  0  0  0  0  0  0  0  0  0
    3.5685   -1.6264   -1.5334 H   0  0  0  0  0  0  0  0  0  0  0  0
  1  2  1  0
  2  3  1  0
  3  4  1  0
  4  5  1  0
  5  6  1  0
  6  7  1  0
  7  8  1  0
  8  9  1  0
  9 10  1  0
 10 11  2  0
 10 12  1  0
 12 13  1  0
  1 14  1  0
  1 15  1  0
  1 16  1  0
  2 17  1  0
  2 18  1  0
  3 19  1  0
  3 20  1  0
  4 21  1  0
  4 22  1  0
  5 23  1  0
  5 24  1  0
  6 25  1  0
  6 26  1  0
  7 27  1  0
  7 28  1  0
  8 29  1  0
  8 30  1  0
  9 31  1  0
  9 32  1  0
M  END
$$$$
