OMPs000156
     RDKit          3D

 23 24  0  0  0  0  0  0  0  0999 V2000
    4.6504   -0.4141   -0.0667 O   0  0  0  0  0  0  0  0  0  0  0  0
    3.2947   -0.2752   -0.0361 C   0  0  0  0  0  0  0  0  0  0  0  0
    2.6885    0.7760    0.6409 C   0  0  0  0  0  0  0  0  0  0  0  0
    1.2936    0.8773    0.6443 C   0  0  0  0  0  0  0  0  0  0  0  0
    0.4937   -0.0666   -0.0241 C   0  0  0  0  0  0  0  0  0  0  0  0
    1.1377   -1.1178   -0.6989 C   0  0  0  0  0  0  0  0  0  0  0  0
    2.5312   -1.2216   -0.7057 C   0  0  0  0  0  0  0  0  0  0  0  0
   -0.9744    0.0426   -0.0163 C   0  0  0  0  0  0  0  0  0  0  0  0
   -1.6151    1.2237   -0.4267 C   0  0  0  0  0  0  0  0  0  0  0  0
   -3.0088    1.3280   -0.4195 C   0  0  0  0  0  0  0  0  0  0  0  0
   -3.7863    0.2515   -0.0001 C   0  0  0  0  0  0  0  0  0  0  0  0
   -3.1717   -0.9284    0.4110 C   0  0  0  0  0  0  0  0  0  0  0  0
   -1.7779   -1.0313    0.4020 C   0  0  0  0  0  0  0  0  0  0  0  0
    5.0471    0.3127    0.4406 H   0  0  0  0  0  0  0  0  0  0  0  0
    3.2751    1.5197    1.1704 H   0  0  0  0  0  0  0  0  0  0  0  0
    0.8272    1.6973    1.1871 H   0  0  0  0  0  0  0  0  0  0  0  0
    0.5538   -1.8612   -1.2377 H   0  0  0  0  0  0  0  0  0  0  0  0
    3.0159   -2.0374   -1.2342 H   0  0  0  0  0  0  0  0  0  0  0  0
   -1.0270    2.0726   -0.7698 H   0  0  0  0  0  0  0  0  0  0  0  0
   -3.4851    2.2491   -0.7447 H   0  0  0  0  0  0  0  0  0  0  0  0
   -4.8700    0.3318    0.0058 H   0  0  0  0  0  0  0  0  0  0  0  0
   -3.7749   -1.7700    0.7412 H   0  0  0  0  0  0  0  0  0  0  0  0
   -1.3176   -1.9587    0.7373 H   0  0  0  0  0  0  0  0  0  0  0  0
  1  2  1  0
  2  3  2  0
  3  4  1  0
  4  5  2  0
  5  6  1  0
  6  7  2  0
  5  8  1  0
  8  9  2  0
  9 10  1  0
 10 11  2  0
 11 12  1  0
 12 13  2  0
  7  2  1  0
 13  8  1  0
  1 14  1  0
  3 15  1  0
  4 16  1  0
  6 17  1  0
  7 18  1  0
  9 19  1  0
 10 20  1  0
 11 21  1  0
 12 22  1  0
 13 23  1  0
M  END
$$$$
