OMPs000215
     RDKit          3D

 38 38  0  0  0  0  0  0  0  0999 V2000
    3.4294   -1.4672   -0.2160 C   0  0  0  0  0  0  0  0  0  0  0  0
    2.2929   -1.3526    0.7930 C   0  0  0  0  0  0  0  0  0  0  0  0
    1.6086   -0.0023    0.7373 C   0  0  0  0  0  0  0  0  0  0  0  0
    2.3283    1.1155    1.1903 C   0  0  0  0  0  0  0  0  0  0  0  0
    1.7769    2.3906    1.1362 C   0  0  0  0  0  0  0  0  0  0  0  0
    0.4956    2.5722    0.6249 C   0  0  0  0  0  0  0  0  0  0  0  0
   -0.2606    1.4845    0.1534 C   0  0  0  0  0  0  0  0  0  0  0  0
   -1.6640    1.7642   -0.3485 C   0  0  0  0  0  0  0  0  0  0  0  0
   -1.6955    2.7009   -1.5509 C   0  0  0  0  0  0  0  0  0  0  0  0
    0.3014    0.1869    0.2276 C   0  0  0  0  0  0  0  0  0  0  0  0
   -0.4467   -0.9469   -0.1784 N   0  0  0  0  0  0  0  0  0  0  0  0
   -1.1491   -1.6713    0.8714 C   0  0  0  0  0  0  0  0  0  0  0  0
   -2.3610   -0.9848    1.1726 O   0  0  0  0  0  0  0  0  0  0  0  0
   -3.1591   -1.7225    2.0849 C   0  0  0  0  0  0  0  0  0  0  0  0
   -0.7006   -1.2784   -1.5051 C   0  0  0  0  0  0  0  0  0  0  0  0
   -1.4845   -2.1847   -1.8093 O   0  0  0  0  0  0  0  0  0  0  0  0
    0.0418   -0.5160   -2.5934 C   0  0  0  0  0  0  0  0  0  0  0  0
    1.0019   -1.6658   -3.5582 Cl  0  0  0  0  0  0  0  0  0  0  0  0
    3.8599   -2.4734   -0.1842 H   0  0  0  0  0  0  0  0  0  0  0  0
    3.0782   -1.2784   -1.2361 H   0  0  0  0  0  0  0  0  0  0  0  0
    4.2325   -0.7529   -0.0000 H   0  0  0  0  0  0  0  0  0  0  0  0
    2.6819   -1.5090    1.8086 H   0  0  0  0  0  0  0  0  0  0  0  0
    1.5882   -2.1723    0.6172 H   0  0  0  0  0  0  0  0  0  0  0  0
    3.3324    0.9955    1.5917 H   0  0  0  0  0  0  0  0  0  0  0  0
    2.3453    3.2443    1.4964 H   0  0  0  0  0  0  0  0  0  0  0  0
    0.0789    3.5773    0.6105 H   0  0  0  0  0  0  0  0  0  0  0  0
   -2.2447    2.2007    0.4744 H   0  0  0  0  0  0  0  0  0  0  0  0
   -2.1874    0.8468   -0.6298 H   0  0  0  0  0  0  0  0  0  0  0  0
   -1.3143    3.6963   -1.3015 H   0  0  0  0  0  0  0  0  0  0  0  0
   -2.7257    2.8222   -1.9037 H   0  0  0  0  0  0  0  0  0  0  0  0
   -1.0961    2.3078   -2.3786 H   0  0  0  0  0  0  0  0  0  0  0  0
   -0.5253   -1.7265    1.7713 H   0  0  0  0  0  0  0  0  0  0  0  0
   -1.3669   -2.6918    0.5372 H   0  0  0  0  0  0  0  0  0  0  0  0
   -3.4598   -2.6783    1.6453 H   0  0  0  0  0  0  0  0  0  0  0  0
   -4.0602   -1.1417    2.3018 H   0  0  0  0  0  0  0  0  0  0  0  0
   -2.6175   -1.8918    3.0209 H   0  0  0  0  0  0  0  0  0  0  0  0
   -0.6893   -0.0346   -3.2487 H   0  0  0  0  0  0  0  0  0  0  0  0
    0.7345    0.2377   -2.2244 H   0  0  0  0  0  0  0  0  0  0  0  0
  1  2  1  0
  2  3  1  0
  3  4  2  0
  4  5  1  0
  5  6  2  0
  6  7  1  0
  7  8  1  0
  8  9  1  0
  7 10  2  0
 10 11  1  0
 11 12  1  0
 12 13  1  0
 13 14  1  0
 11 15  1  0
 15 16  2  0
 15 17  1  0
 17 18  1  0
 10  3  1  0
  1 19  1  0
  1 20  1  0
  1 21  1  0
  2 22  1  0
  2 23  1  0
  4 24  1  0
  5 25  1  0
  6 26  1  0
  8 27  1  0
  8 28  1  0
  9 29  1  0
  9 30  1  0
  9 31  1  0
 12 32  1  0
 12 33  1  0
 14 34  1  0
 14 35  1  0
 14 36  1  0
 17 37  1  0
 17 38  1  0
M  END
$$$$
