OMPs000127
     RDKit          3D

 24 23  0  0  0  0  0  0  0  0999 V2000
    2.5893   -1.5715   -0.8622 O   0  0  0  0  0  0  0  0  0  0  0  0
    2.5818   -0.4768    0.0450 C   0  0  0  0  0  0  0  0  0  0  0  0
    1.1545   -0.0677    0.4358 C   0  0  1  0  0  0  0  0  0  0  0  0
    1.1819    0.9704    1.4283 O   0  0  0  0  0  0  0  0  0  0  0  0
    0.3312    0.4310   -0.7679 C   0  0  2  0  0  0  0  0  0  0  0  0
    0.9076    1.6794   -1.2131 O   0  0  0  0  0  0  0  0  0  0  0  0
   -1.1558    0.6972   -0.4332 C   0  0  2  0  0  0  0  0  0  0  0  0
   -1.2483    1.8407    0.4508 O   0  0  0  0  0  0  0  0  0  0  0  0
   -1.9284   -0.4621    0.2067 C   0  0  1  0  0  0  0  0  0  0  0  0
   -3.2927   -0.0729    0.3851 O   0  0  0  0  0  0  0  0  0  0  0  0
   -1.8712   -1.6918   -0.6723 C   0  0  0  0  0  0  0  0  0  0  0  0
   -0.9123   -2.4622   -0.6688 O   0  0  0  0  0  0  0  0  0  0  0  0
    2.0749   -2.3011   -0.4708 H   0  0  0  0  0  0  0  0  0  0  0  0
    3.1506   -0.7606    0.9373 H   0  0  0  0  0  0  0  0  0  0  0  0
    3.1208    0.3587   -0.4140 H   0  0  0  0  0  0  0  0  0  0  0  0
    0.6714   -0.9390    0.8865 H   0  0  0  0  0  0  0  0  0  0  0  0
    1.7397    1.6790    1.0459 H   0  0  0  0  0  0  0  0  0  0  0  0
    0.4008   -0.2771   -1.5997 H   0  0  0  0  0  0  0  0  0  0  0  0
    0.3149    2.3925   -0.8998 H   0  0  0  0  0  0  0  0  0  0  0  0
   -1.6668    1.0166   -1.3502 H   0  0  0  0  0  0  0  0  0  0  0  0
   -0.6209    1.6766    1.1910 H   0  0  0  0  0  0  0  0  0  0  0  0
   -1.5464   -0.7083    1.2018 H   0  0  0  0  0  0  0  0  0  0  0  0
   -3.2706    0.8707    0.6460 H   0  0  0  0  0  0  0  0  0  0  0  0
   -2.7058   -1.8218   -1.3823 H   0  0  0  0  0  0  0  0  0  0  0  0
  1  2  1  0
  2  3  1  0
  3  4  1  0
  3  5  1  0
  5  6  1  0
  5  7  1  0
  7  8  1  0
  7  9  1  0
  9 10  1  0
  9 11  1  0
 11 12  2  0
  1 13  1  0
  2 14  1  0
  2 15  1  0
  3 16  1  1
  4 17  1  0
  5 18  1  6
  6 19  1  0
  7 20  1  6
  8 21  1  0
  9 22  1  1
 10 23  1  0
 11 24  1  0
M  END
$$$$
