OMPs000044
     RDKit          3D

 42 45  0  0  0  0  0  0  0  0999 V2000
   -2.2931    0.1228    1.9880 C   0  0  0  0  0  0  0  0  0  0  0  0
   -2.3885   -0.4563    0.5643 C   0  0  2  0  0  0  0  0  0  0  0  0
   -1.7555   -1.8416    0.4910 C   0  0  0  0  0  0  0  0  0  0  0  0
   -0.2210   -1.7627    0.6100 C   0  0  0  0  0  0  0  0  0  0  0  0
    0.4362   -0.7542   -0.3723 C   0  0  1  0  0  0  0  0  0  0  0  0
   -0.2817    0.6312   -0.3314 C   0  0  1  0  0  0  0  0  0  0  0  0
    0.3478    1.5477   -1.3816 C   0  0  0  0  0  0  0  0  0  0  0  0
    1.8009    1.8357   -1.0148 C   0  0  0  0  0  0  0  0  0  0  0  0
    2.5771    0.6185   -0.5729 C   0  0  0  0  0  0  0  0  0  0  0  0
    3.9734    0.7385   -0.4644 C   0  0  0  0  0  0  0  0  0  0  0  0
    4.7421   -0.3378   -0.0452 C   0  0  0  0  0  0  0  0  0  0  0  0
    6.0916   -0.1645    0.0371 O   0  0  0  0  0  0  0  0  0  0  0  0
    4.1454   -1.5478    0.2726 C   0  0  0  0  0  0  0  0  0  0  0  0
    2.7569   -1.6758    0.1763 C   0  0  0  0  0  0  0  0  0  0  0  0
    1.9473   -0.5966   -0.2239 C   0  0  0  0  0  0  0  0  0  0  0  0
   -1.7750    0.4035   -0.5606 C   0  0  2  0  0  0  0  0  0  0  0  0
   -2.7211    1.5930   -0.6782 C   0  0  0  0  0  0  0  0  0  0  0  0
   -4.1064    0.9309   -0.6255 C   0  0  0  0  0  0  0  0  0  0  0  0
   -3.8451   -0.3490    0.1508 C   0  0  0  0  0  0  0  0  0  0  0  0
   -4.7096   -1.1703    0.4254 O   0  0  0  0  0  0  0  0  0  0  0  0
   -2.8015   -0.5387    2.7001 H   0  0  0  0  0  0  0  0  0  0  0  0
   -2.7793    1.1003    2.0756 H   0  0  0  0  0  0  0  0  0  0  0  0
   -1.2619    0.2370    2.3321 H   0  0  0  0  0  0  0  0  0  0  0  0
   -2.1528   -2.4926    1.2792 H   0  0  0  0  0  0  0  0  0  0  0  0
   -2.0179   -2.3263   -0.4586 H   0  0  0  0  0  0  0  0  0  0  0  0
    0.0558   -1.5057    1.6399 H   0  0  0  0  0  0  0  0  0  0  0  0
    0.1680   -2.7720    0.4318 H   0  0  0  0  0  0  0  0  0  0  0  0
    0.2928   -1.1721   -1.3810 H   0  0  0  0  0  0  0  0  0  0  0  0
   -0.1276    1.0983    0.6499 H   0  0  0  0  0  0  0  0  0  0  0  0
   -0.1918    2.4983   -1.4545 H   0  0  0  0  0  0  0  0  0  0  0  0
    0.2988    1.0755   -2.3713 H   0  0  0  0  0  0  0  0  0  0  0  0
    1.8235    2.5639   -0.1938 H   0  0  0  0  0  0  0  0  0  0  0  0
    2.2950    2.2981   -1.8779 H   0  0  0  0  0  0  0  0  0  0  0  0
    4.4659    1.6764   -0.7099 H   0  0  0  0  0  0  0  0  0  0  0  0
    6.4906   -0.9955    0.3422 H   0  0  0  0  0  0  0  0  0  0  0  0
    4.7353   -2.4012    0.5909 H   0  0  0  0  0  0  0  0  0  0  0  0
    2.3234   -2.6430    0.4150 H   0  0  0  0  0  0  0  0  0  0  0  0
   -1.8702   -0.1429   -1.5152 H   0  0  0  0  0  0  0  0  0  0  0  0
   -2.5895    2.2989    0.1489 H   0  0  0  0  0  0  0  0  0  0  0  0
   -2.5879    2.1467   -1.6128 H   0  0  0  0  0  0  0  0  0  0  0  0
   -4.4563    0.6703   -1.6285 H   0  0  0  0  0  0  0  0  0  0  0  0
   -4.8342    1.5611   -0.1100 H   0  0  0  0  0  0  0  0  0  0  0  0
  2  1  1  1
  2  3  1  0
  3  4  1  0
  4  5  1  0
  5  6  1  0
  6  7  1  0
  7  8  1  0
  8  9  1  0
  9 10  2  0
 10 11  1  0
 11 12  1  0
 11 13  2  0
 13 14  1  0
 14 15  2  0
  6 16  1  0
 16 17  1  0
 17 18  1  0
 18 19  1  0
 19 20  2  0
 16  2  1  0
 19  2  1  0
 15  5  1  0
 15  9  1  0
  1 21  1  0
  1 22  1  0
  1 23  1  0
  3 24  1  0
  3 25  1  0
  4 26  1  0
  4 27  1  0
  5 28  1  6
  6 29  1  1
  7 30  1  0
  7 31  1  0
  8 32  1  0
  8 33  1  0
 10 34  1  0
 12 35  1  0
 13 36  1  0
 14 37  1  0
 16 38  1  6
 17 39  1  0
 17 40  1  0
 18 41  1  0
 18 42  1  0
M  END
$$$$
