OMPs000192
     RDKit          3D

  8  7  0  0  0  0  0  0  0  0999 V2000
    1.4512   -0.6713    0.1440 O   0  0  0  0  0  0  0  0  0  0  0  0
    0.5026    0.2933    0.1222 C   0  0  0  0  0  0  0  0  0  0  0  0
    0.8209    1.4504    0.3333 O   0  0  0  0  0  0  0  0  0  0  0  0
   -0.8529   -0.2825   -0.1778 C   0  0  0  0  0  0  0  0  0  0  0  0
   -2.1890    1.1259   -0.2017 Br  0  0  0  0  0  0  0  0  0  0  0  0
    2.2775   -0.1816    0.3460 H   0  0  0  0  0  0  0  0  0  0  0  0
   -0.8612   -0.7456   -1.1664 H   0  0  0  0  0  0  0  0  0  0  0  0
   -1.1490   -0.9887    0.6004 H   0  0  0  0  0  0  0  0  0  0  0  0
  1  2  1  0
  2  3  2  0
  2  4  1  0
  4  5  1  0
  1  6  1  0
  4  7  1  0
  4  8  1  0
M  END
$$$$
