OMPs000011
     RDKit          3D

 46 49  0  0  0  0  0  0  0  0999 V2000
   -2.3697    2.6315   -0.9358 C   0  0  0  0  0  0  0  0  0  0  0  0
   -2.3687    1.2738   -1.6424 C   0  0  0  0  0  0  0  0  0  0  0  0
   -0.9922    0.9185   -2.2092 C   0  0  0  0  0  0  0  0  0  0  0  0
   -0.0121    0.7873   -1.1782 O   0  0  0  0  0  0  0  0  0  0  0  0
   -0.3972   -0.1106   -0.1948 C   0  0  0  0  0  0  0  0  0  0  0  0
    0.6408   -0.7090    0.5704 C   0  0  0  0  0  0  0  0  0  0  0  0
    1.9868   -0.3596    0.3233 N   0  0  0  0  0  0  0  0  0  0  0  0
    2.3222    1.0174    0.7593 C   0  0  0  0  0  0  0  0  0  0  0  0
    3.6938    1.4373    0.1765 C   0  0  0  0  0  0  0  0  0  0  0  0
    4.7827    0.4971    0.5286 N   0  0  0  0  0  0  0  0  0  0  0  0
    6.0364    0.8994   -0.1038 C   0  0  0  0  0  0  0  0  0  0  0  0
    4.3999   -0.8706    0.1065 C   0  0  0  0  0  0  0  0  0  0  0  0
    3.0449   -1.3169    0.7080 C   0  0  0  0  0  0  0  0  0  0  0  0
    0.2417   -1.6589    1.5309 C   0  0  0  0  0  0  0  0  0  0  0  0
    1.1460   -2.2848    2.3000 F   0  0  0  0  0  0  0  0  0  0  0  0
   -1.0950   -1.9817    1.7507 C   0  0  0  0  0  0  0  0  0  0  0  0
   -2.0921   -1.3548    1.0042 C   0  0  0  0  0  0  0  0  0  0  0  0
   -3.5185   -1.6840    1.2668 C   0  0  0  0  0  0  0  0  0  0  0  0
   -3.7996   -2.4603    2.1734 O   0  0  0  0  0  0  0  0  0  0  0  0
   -4.5460   -1.0127    0.4316 C   0  0  0  0  0  0  0  0  0  0  0  0
   -4.1165   -0.1108   -0.4654 C   0  0  0  0  0  0  0  0  0  0  0  0
   -2.7982    0.2209   -0.7095 N   0  0  0  0  0  0  0  0  0  0  0  0
   -1.7643   -0.4062    0.0241 C   0  0  0  0  0  0  0  0  0  0  0  0
   -5.9933   -1.2457    0.5167 C   0  0  0  0  0  0  0  0  0  0  0  0
   -6.3187   -2.4579    0.9864 O   0  0  0  0  0  0  0  0  0  0  0  0
   -6.8596   -0.4661    0.1523 O   0  0  0  0  0  0  0  0  0  0  0  0
   -2.0499    3.4232   -1.6212 H   0  0  0  0  0  0  0  0  0  0  0  0
   -1.7031    2.6455   -0.0670 H   0  0  0  0  0  0  0  0  0  0  0  0
   -3.3750    2.8817   -0.5796 H   0  0  0  0  0  0  0  0  0  0  0  0
   -3.0732    1.3236   -2.4827 H   0  0  0  0  0  0  0  0  0  0  0  0
   -1.0280   -0.0141   -2.7880 H   0  0  0  0  0  0  0  0  0  0  0  0
   -0.6491    1.7055   -2.8898 H   0  0  0  0  0  0  0  0  0  0  0  0
    2.3582    1.0596    1.8563 H   0  0  0  0  0  0  0  0  0  0  0  0
    1.5775    1.7505    0.4315 H   0  0  0  0  0  0  0  0  0  0  0  0
    3.9380    2.4349    0.5607 H   0  0  0  0  0  0  0  0  0  0  0  0
    3.6018    1.5177   -0.9152 H   0  0  0  0  0  0  0  0  0  0  0  0
    6.8457    0.2191    0.1832 H   0  0  0  0  0  0  0  0  0  0  0  0
    5.9673    0.9103   -1.1975 H   0  0  0  0  0  0  0  0  0  0  0  0
    6.3313    1.8995    0.2325 H   0  0  0  0  0  0  0  0  0  0  0  0
    5.1699   -1.5804    0.4316 H   0  0  0  0  0  0  0  0  0  0  0  0
    4.3388   -0.9271   -0.9888 H   0  0  0  0  0  0  0  0  0  0  0  0
    2.8101   -2.3181    0.3275 H   0  0  0  0  0  0  0  0  0  0  0  0
    3.1485   -1.3676    1.7990 H   0  0  0  0  0  0  0  0  0  0  0  0
   -1.3434   -2.7149    2.5135 H   0  0  0  0  0  0  0  0  0  0  0  0
   -4.8223    0.4313   -1.0930 H   0  0  0  0  0  0  0  0  0  0  0  0
   -7.2965   -2.4726    1.0036 H   0  0  0  0  0  0  0  0  0  0  0  0
  1  2  1  0
  2  3  1  0
  3  4  1  0
  4  5  1  0
  5  6  1  0
  6  7  1  0
  7  8  1  0
  8  9  1  0
  9 10  1  0
 10 11  1  0
 10 12  1  0
 12 13  1  0
  6 14  2  0
 14 15  1  0
 14 16  1  0
 16 17  2  0
 17 18  1  0
 18 19  2  0
 18 20  1  0
 20 21  2  0
 21 22  1  0
 22 23  1  0
 20 24  1  0
 24 25  1  0
 24 26  2  0
 22  2  1  0
 23  5  2  0
 13  7  1  0
 23 17  1  0
  1 27  1  0
  1 28  1  0
  1 29  1  0
  2 30  1  0
  3 31  1  0
  3 32  1  0
  8 33  1  0
  8 34  1  0
  9 35  1  0
  9 36  1  0
 11 37  1  0
 11 38  1  0
 11 39  1  0
 12 40  1  0
 12 41  1  0
 13 42  1  0
 13 43  1  0
 16 44  1  0
 21 45  1  0
 25 46  1  0
M  END
$$$$
