OMPs000070
     RDKit          3D

 23 25  0  0  0  0  0  0  0  0999 V2000
   -2.3204   -0.5733    2.4852 O   0  0  0  0  0  0  0  0  0  0  0  0
   -2.2715   -0.3519    1.2755 C   0  0  0  0  0  0  0  0  0  0  0  0
   -3.5519   -0.2653    0.4536 C   0  0  0  0  0  0  0  0  0  0  0  0
   -3.3600    0.0081   -1.0068 C   0  0  0  0  0  0  0  0  0  0  0  0
   -2.1622    0.1703   -1.5809 C   0  0  0  0  0  0  0  0  0  0  0  0
   -0.9466    0.0853   -0.7841 C   0  0  0  0  0  0  0  0  0  0  0  0
    0.2159    0.2634   -1.4550 N   0  0  0  0  0  0  0  0  0  0  0  0
    1.3497    0.1871   -0.7280 C   0  0  0  0  0  0  0  0  0  0  0  0
    2.5777    0.3602   -1.3541 C   0  0  0  0  0  0  0  0  0  0  0  0
    3.7745    0.2892   -0.6392 C   0  0  0  0  0  0  0  0  0  0  0  0
    3.7441    0.0406    0.7269 C   0  0  0  0  0  0  0  0  0  0  0  0
    2.5173   -0.1353    1.3683 C   0  0  0  0  0  0  0  0  0  0  0  0
    1.3197   -0.0671    0.6683 C   0  0  0  0  0  0  0  0  0  0  0  0
    0.1596   -0.2426    1.3258 N   0  0  0  0  0  0  0  0  0  0  0  0
   -0.9727   -0.1628    0.5797 C   0  0  0  0  0  0  0  0  0  0  0  0
   -4.0824   -1.2173    0.5661 H   0  0  0  0  0  0  0  0  0  0  0  0
   -4.1673    0.5331    0.8827 H   0  0  0  0  0  0  0  0  0  0  0  0
   -4.2571    0.0752   -1.6185 H   0  0  0  0  0  0  0  0  0  0  0  0
   -2.0538    0.3676   -2.6424 H   0  0  0  0  0  0  0  0  0  0  0  0
    2.6023    0.5550   -2.4237 H   0  0  0  0  0  0  0  0  0  0  0  0
    4.7239    0.4281   -1.1508 H   0  0  0  0  0  0  0  0  0  0  0  0
    4.6689   -0.0173    1.2959 H   0  0  0  0  0  0  0  0  0  0  0  0
    2.4921   -0.3302    2.4383 H   0  0  0  0  0  0  0  0  0  0  0  0
  1  2  2  0
  2  3  1  0
  3  4  1  0
  4  5  2  0
  5  6  1  0
  6  7  2  0
  7  8  1  0
  8  9  2  0
  9 10  1  0
 10 11  2  0
 11 12  1  0
 12 13  2  0
 13 14  1  0
 14 15  2  0
 15  2  1  0
 15  6  1  0
 13  8  1  0
  3 16  1  0
  3 17  1  0
  4 18  1  0
  5 19  1  0
  9 20  1  0
 10 21  1  0
 11 22  1  0
 12 23  1  0
M  END
$$$$
