OMPs000166
     RDKit          3D

 24 23  0  0  0  0  0  0  0  0999 V2000
    4.8445    0.1238    0.5590 O   0  0  0  0  0  0  0  0  0  0  0  0
    3.6887   -0.2161   -0.1963 C   0  0  0  0  0  0  0  0  0  0  0  0
    2.5411   -0.5924    0.7371 C   0  0  0  0  0  0  0  0  0  0  0  0
    1.3649   -0.9516    0.0134 O   0  0  0  0  0  0  0  0  0  0  0  0
    0.5713    0.1780   -0.3643 C   0  0  0  0  0  0  0  0  0  0  0  0
   -0.7040   -0.3045   -1.0648 C   0  0  0  0  0  0  0  0  0  0  0  0
   -1.6134   -0.9306   -0.1528 O   0  0  0  0  0  0  0  0  0  0  0  0
   -2.4528   -0.0146    0.5477 C   0  0  0  0  0  0  0  0  0  0  0  0
   -3.7442    0.2417   -0.2246 C   0  0  0  0  0  0  0  0  0  0  0  0
   -4.5477    1.1910    0.4645 O   0  0  0  0  0  0  0  0  0  0  0  0
    5.5638    0.2783   -0.0773 H   0  0  0  0  0  0  0  0  0  0  0  0
    3.4218    0.6382   -0.8254 H   0  0  0  0  0  0  0  0  0  0  0  0
    3.9265   -1.0547   -0.8595 H   0  0  0  0  0  0  0  0  0  0  0  0
    2.8401   -1.4646    1.3296 H   0  0  0  0  0  0  0  0  0  0  0  0
    2.3351    0.2069    1.4595 H   0  0  0  0  0  0  0  0  0  0  0  0
    0.3259    0.7587    0.5304 H   0  0  0  0  0  0  0  0  0  0  0  0
    1.1442    0.8021   -1.0572 H   0  0  0  0  0  0  0  0  0  0  0  0
   -1.1981    0.5249   -1.5821 H   0  0  0  0  0  0  0  0  0  0  0  0
   -0.4427   -1.0615   -1.8118 H   0  0  0  0  0  0  0  0  0  0  0  0
   -1.9353    0.9249    0.7734 H   0  0  0  0  0  0  0  0  0  0  0  0
   -2.7015   -0.4660    1.5147 H   0  0  0  0  0  0  0  0  0  0  0  0
   -4.3072   -0.6910   -0.3386 H   0  0  0  0  0  0  0  0  0  0  0  0
   -3.5328    0.6244   -1.2279 H   0  0  0  0  0  0  0  0  0  0  0  0
   -5.3883    1.2546   -0.0211 H   0  0  0  0  0  0  0  0  0  0  0  0
  1  2  1  0
  2  3  1  0
  3  4  1  0
  4  5  1  0
  5  6  1  0
  6  7  1  0
  7  8  1  0
  8  9  1  0
  9 10  1  0
  1 11  1  0
  2 12  1  0
  2 13  1  0
  3 14  1  0
  3 15  1  0
  5 16  1  0
  5 17  1  0
  6 18  1  0
  6 19  1  0
  8 20  1  0
  8 21  1  0
  9 22  1  0
  9 23  1  0
 10 24  1  0
M  END
$$$$
