OMPs000146
     RDKit          3D

  8  7  0  0  0  0  0  0  0  0999 V2000
    1.4294   -0.6024    0.3968 O   0  0  0  0  0  0  0  0  0  0  0  0
    0.5402    0.2072   -0.2310 C   0  0  0  0  0  0  0  0  0  0  0  0
    0.9488    0.9798   -1.0845 O   0  0  0  0  0  0  0  0  0  0  0  0
   -0.8840    0.0026    0.2534 C   0  0  0  0  0  0  0  0  0  0  0  0
   -1.9097    1.3741   -0.2158 Cl  0  0  0  0  0  0  0  0  0  0  0  0
   -1.5167   -1.5077   -0.4321 Cl  0  0  0  0  0  0  0  0  0  0  0  0
    2.2877   -0.3927   -0.0318 H   0  0  0  0  0  0  0  0  0  0  0  0
   -0.8957   -0.0609    1.3451 H   0  0  0  0  0  0  0  0  0  0  0  0
  1  2  1  0
  2  3  2  0
  2  4  1  0
  4  5  1  0
  4  6  1  0
  1  7  1  0
  4  8  1  0
M  END
$$$$
