OMPs000001
     RDKit          3D

 29 30  0  0  0  0  0  0  0  0999 V2000
    5.5911    1.3080    0.9668 O   0  0  0  0  0  0  0  0  0  0  0  0
    4.4609    0.6557    0.5740 C   0  0  0  0  0  0  0  0  0  0  0  0
    4.5224   -0.5643   -0.0915 C   0  0  0  0  0  0  0  0  0  0  0  0
    3.3364   -1.1963   -0.4750 C   0  0  0  0  0  0  0  0  0  0  0  0
    2.0939   -0.6082   -0.1928 C   0  0  0  0  0  0  0  0  0  0  0  0
    2.0510    0.6219    0.4789 C   0  0  0  0  0  0  0  0  0  0  0  0
    3.2379    1.2519    0.8613 C   0  0  0  0  0  0  0  0  0  0  0  0
    0.8634   -1.3256   -0.6244 C   0  0  0  0  0  0  0  0  0  0  0  0
    0.8763   -2.3968   -1.2100 O   0  0  0  0  0  0  0  0  0  0  0  0
   -0.2416   -0.6263   -0.2769 O   0  0  0  0  0  0  0  0  0  0  0  0
   -1.4670   -1.2541   -0.6594 C   0  0  0  0  0  0  0  0  0  0  0  0
   -2.5973   -0.3656   -0.2091 C   0  0  0  0  0  0  0  0  0  0  0  0
   -3.0830    0.6477   -1.0476 C   0  0  0  0  0  0  0  0  0  0  0  0
   -4.1166    1.4837   -0.6218 C   0  0  0  0  0  0  0  0  0  0  0  0
   -4.6681    1.3208    0.6477 C   0  0  0  0  0  0  0  0  0  0  0  0
   -4.1840    0.3255    1.4947 C   0  0  0  0  0  0  0  0  0  0  0  0
   -3.1505   -0.5115    1.0708 C   0  0  0  0  0  0  0  0  0  0  0  0
    6.3642    0.7819    0.7036 H   0  0  0  0  0  0  0  0  0  0  0  0
    5.4732   -1.0362   -0.3194 H   0  0  0  0  0  0  0  0  0  0  0  0
    3.3837   -2.1512   -0.9959 H   0  0  0  0  0  0  0  0  0  0  0  0
    1.1037    1.1025    0.7117 H   0  0  0  0  0  0  0  0  0  0  0  0
    3.2075    2.2053    1.3820 H   0  0  0  0  0  0  0  0  0  0  0  0
   -1.5533   -2.2399   -0.1857 H   0  0  0  0  0  0  0  0  0  0  0  0
   -1.5036   -1.3852   -1.7480 H   0  0  0  0  0  0  0  0  0  0  0  0
   -2.6553    0.7927   -2.0372 H   0  0  0  0  0  0  0  0  0  0  0  0
   -4.4889    2.2647   -1.2795 H   0  0  0  0  0  0  0  0  0  0  0  0
   -5.4717    1.9731    0.9791 H   0  0  0  0  0  0  0  0  0  0  0  0
   -4.6089    0.2032    2.4875 H   0  0  0  0  0  0  0  0  0  0  0  0
   -2.7759   -1.2777    1.7461 H   0  0  0  0  0  0  0  0  0  0  0  0
  1  2  1  0
  2  3  2  0
  3  4  1  0
  4  5  2  0
  5  6  1  0
  6  7  2  0
  5  8  1  0
  8  9  2  0
  8 10  1  0
 10 11  1  0
 11 12  1  0
 12 13  2  0
 13 14  1  0
 14 15  2  0
 15 16  1  0
 16 17  2  0
  7  2  1  0
 17 12  1  0
  1 18  1  0
  3 19  1  0
  4 20  1  0
  6 21  1  0
  7 22  1  0
 11 23  1  0
 11 24  1  0
 13 25  1  0
 14 26  1  0
 15 27  1  0
 16 28  1  0
 17 29  1  0
M  END
$$$$
