OMPs000033
     RDKit          3D

 41 41  0  0  0  0  0  0  0  0999 V2000
    0.0000    0.0000    0.0000 Cl  0  0  0  0  0 15  0  0  0  0  0  0
    5.1554   -0.6771   -2.2870 C   0  0  0  0  0  0  0  0  0  0  0  0
    3.9577   -1.1596   -1.4662 C   0  0  0  0  0  0  0  0  0  0  0  0
    3.9779   -2.6859   -1.3670 C   0  0  0  0  0  0  0  0  0  0  0  0
    2.7399   -0.6523   -2.1130 N   0  0  0  0  0  0  0  0  0  0  0  0
    1.5382   -0.8066   -1.2694 C   0  0  0  0  0  0  0  0  0  0  0  0
    0.3645   -0.0610   -1.9352 C   0  0  0  0  0  0  0  0  0  0  0  0
    0.7464    1.3085   -2.1426 O   0  0  0  0  0  0  0  0  0  0  0  0
   -0.9316   -0.1299   -1.1173 C   0  0  0  0  0  0  0  0  0  0  0  0
   -0.6771    0.1733    0.2644 O   0  0  0  0  0  0  0  0  0  0  0  0
   -1.5971    1.0620    0.7641 C   0  0  0  0  0  0  0  0  0  0  0  0
   -1.4949    2.4077    0.4028 C   0  0  0  0  0  0  0  0  0  0  0  0
   -2.3988    3.3311    0.9162 C   0  0  0  0  0  0  0  0  0  0  0  0
   -3.3934    2.9121    1.8013 C   0  0  0  0  0  0  0  0  0  0  0  0
   -3.4925    1.5659    2.1938 C   0  0  0  0  0  0  0  0  0  0  0  0
   -4.4856    1.1478    3.0953 C   0  0  0  0  0  0  0  0  0  0  0  0
   -4.5779   -0.1870    3.4919 C   0  0  0  0  0  0  0  0  0  0  0  0
   -3.6776   -1.1225    2.9943 C   0  0  0  0  0  0  0  0  0  0  0  0
   -2.6862   -0.7240    2.0963 C   0  0  0  0  0  0  0  0  0  0  0  0
   -2.5765    0.6186    1.6777 C   0  0  0  0  0  0  0  0  0  0  0  0
    5.1333   -1.0761   -3.3076 H   0  0  0  0  0  0  0  0  0  0  0  0
    6.0954   -0.9949   -1.8226 H   0  0  0  0  0  0  0  0  0  0  0  0
    5.1724    0.4168   -2.3509 H   0  0  0  0  0  0  0  0  0  0  0  0
    4.0510   -0.7301   -0.4612 H   0  0  0  0  0  0  0  0  0  0  0  0
    3.8530   -3.1536   -2.3500 H   0  0  0  0  0  0  0  0  0  0  0  0
    3.1848   -3.0572   -0.7105 H   0  0  0  0  0  0  0  0  0  0  0  0
    4.9309   -3.0319   -0.9517 H   0  0  0  0  0  0  0  0  0  0  0  0
    2.5981   -1.1366   -3.0008 H   0  0  0  0  0  0  0  0  0  0  0  0
    1.2785   -1.8618   -1.1374 H   0  0  0  0  0  0  0  0  0  0  0  0
    1.7435   -0.3638   -0.2881 H   0  0  0  0  0  0  0  0  0  0  0  0
    0.1706   -0.4815   -2.9293 H   0  0  0  0  0  0  0  0  0  0  0  0
    1.7120    1.2683   -2.3066 H   0  0  0  0  0  0  0  0  0  0  0  0
   -1.3254   -1.1524   -1.1485 H   0  0  0  0  0  0  0  0  0  0  0  0
   -1.6840    0.5334   -1.5645 H   0  0  0  0  0  0  0  0  0  0  0  0
   -0.7108    2.7313   -0.2774 H   0  0  0  0  0  0  0  0  0  0  0  0
   -2.3267    4.3774    0.6318 H   0  0  0  0  0  0  0  0  0  0  0  0
   -4.0900    3.6504    2.1928 H   0  0  0  0  0  0  0  0  0  0  0  0
   -5.1967    1.8649    3.4998 H   0  0  0  0  0  0  0  0  0  0  0  0
   -5.3506   -0.4932    4.1920 H   0  0  0  0  0  0  0  0  0  0  0  0
   -3.7428   -2.1618    3.3048 H   0  0  0  0  0  0  0  0  0  0  0  0
   -1.9872   -1.4685    1.7220 H   0  0  0  0  0  0  0  0  0  0  0  0
  2  3  1  0
  3  4  1  0
  3  5  1  0
  5  6  1  0
  6  7  1  0
  7  8  1  0
  7  9  1  0
  9 10  1  0
 10 11  1  0
 11 12  2  0
 12 13  1  0
 13 14  2  0
 14 15  1  0
 15 16  2  0
 16 17  1  0
 17 18  2  0
 18 19  1  0
 19 20  2  0
 20 11  1  0
 20 15  1  0
  2 21  1  0
  2 22  1  0
  2 23  1  0
  3 24  1  0
  4 25  1  0
  4 26  1  0
  4 27  1  0
  5 28  1  0
  6 29  1  0
  6 30  1  0
  7 31  1  0
  8 32  1  0
  9 33  1  0
  9 34  1  0
 12 35  1  0
 13 36  1  0
 14 37  1  0
 16 38  1  0
 17 39  1  0
 18 40  1  0
 19 41  1  0
M  END
$$$$
