OMPs000082
     RDKit          3D

 28 29  0  0  0  0  0  0  0  0999 V2000
   -3.1094   -0.4482   -1.1194 C   0  0  0  0  0  0  0  0  0  0  0  0
   -2.5026    0.0471    0.1915 C   0  0  0  0  0  0  0  0  0  0  0  0
   -2.7980    1.5233    0.4417 C   0  0  0  0  0  0  0  0  0  0  0  0
   -1.0300   -0.2225    0.2248 N   0  0  0  0  0  0  0  0  0  0  0  0
   -0.1230    0.3858   -0.6870 C   0  0  0  0  0  0  0  0  0  0  0  0
   -0.5031    1.0722   -1.6288 O   0  0  0  0  0  0  0  0  0  0  0  0
    1.3307    0.1559   -0.5046 C   0  0  0  0  0  0  0  0  0  0  0  0
    2.2373    0.8700   -1.3043 C   0  0  0  0  0  0  0  0  0  0  0  0
    3.6099    0.6487   -1.1839 C   0  0  0  0  0  0  0  0  0  0  0  0
    4.0829   -0.2964   -0.2767 C   0  0  0  0  0  0  0  0  0  0  0  0
    3.1858   -1.0108    0.5195 C   0  0  0  0  0  0  0  0  0  0  0  0
    1.8131   -0.7580    0.4330 C   0  0  0  0  0  0  0  0  0  0  0  0
    0.9272   -1.5717    1.1919 N   0  0  0  0  0  0  0  0  0  0  0  0
   -0.4724   -0.8054    1.6924 S   0  0  0  0  0  6  0  0  0  0  0  0
   -0.0959    0.3144    2.5218 O   0  0  0  0  0  0  0  0  0  0  0  0
   -1.3437   -1.8451    2.1852 O   0  0  0  0  0  0  0  0  0  0  0  0
   -2.8448   -1.4961   -1.2980 H   0  0  0  0  0  0  0  0  0  0  0  0
   -4.2020   -0.3776   -1.0846 H   0  0  0  0  0  0  0  0  0  0  0  0
   -2.7730    0.1334   -1.9825 H   0  0  0  0  0  0  0  0  0  0  0  0
   -3.0002   -0.5205    0.9863 H   0  0  0  0  0  0  0  0  0  0  0  0
   -3.8783    1.6910    0.5090 H   0  0  0  0  0  0  0  0  0  0  0  0
   -2.4154    2.1645   -0.3580 H   0  0  0  0  0  0  0  0  0  0  0  0
   -2.3472    1.8589    1.3815 H   0  0  0  0  0  0  0  0  0  0  0  0
    1.8765    1.5958   -2.0317 H   0  0  0  0  0  0  0  0  0  0  0  0
    4.3070    1.2039   -1.8079 H   0  0  0  0  0  0  0  0  0  0  0  0
    5.1514   -0.4838   -0.1953 H   0  0  0  0  0  0  0  0  0  0  0  0
    3.5722   -1.7593    1.2064 H   0  0  0  0  0  0  0  0  0  0  0  0
    1.3451   -2.0694    1.9774 H   0  0  0  0  0  0  0  0  0  0  0  0
  1  2  1  0
  2  3  1  0
  2  4  1  0
  4  5  1  0
  5  6  2  0
  5  7  1  0
  7  8  2  0
  8  9  1  0
  9 10  2  0
 10 11  1  0
 11 12  2  0
 12 13  1  0
 13 14  1  0
 14 15  2  0
 14 16  2  0
 14  4  1  0
 12  7  1  0
  1 17  1  0
  1 18  1  0
  1 19  1  0
  2 20  1  0
  3 21  1  0
  3 22  1  0
  3 23  1  0
  8 24  1  0
  9 25  1  0
 10 26  1  0
 11 27  1  0
 13 28  1  0
M  END
$$$$
