OMPs000043
     RDKit          3D

 18 17  0  0  0  0  0  0  0  0999 V2000
    2.0820    0.3008    0.3857 C   0  0  0  0  0  0  0  0  0  0  0  0
    1.0162    0.6394   -0.4883 O   0  0  0  0  0  0  0  0  0  0  0  0
   -0.2692    0.0694   -0.1987 C   0  0  0  0  0  0  0  0  0  0  0  0
   -0.7951    0.5298    1.1661 C   0  0  0  0  0  0  0  0  0  0  0  0
   -0.2389   -1.4613   -0.2834 C   0  0  0  0  0  0  0  0  0  0  0  0
   -1.2011    0.6068   -1.2943 C   0  0  0  0  0  0  0  0  0  0  0  0
    1.8865    0.6435    1.4046 H   0  0  0  0  0  0  0  0  0  0  0  0
    2.2822   -0.7732    0.3732 H   0  0  0  0  0  0  0  0  0  0  0  0
    2.9816    0.8114    0.0295 H   0  0  0  0  0  0  0  0  0  0  0  0
   -0.2140    0.0978    1.9877 H   0  0  0  0  0  0  0  0  0  0  0  0
   -1.8396    0.2340    1.3129 H   0  0  0  0  0  0  0  0  0  0  0  0
   -0.7236    1.6187    1.2645 H   0  0  0  0  0  0  0  0  0  0  0  0
   -1.2477   -1.8849   -0.2298 H   0  0  0  0  0  0  0  0  0  0  0  0
    0.2288   -1.7909   -1.2178 H   0  0  0  0  0  0  0  0  0  0  0  0
    0.3436   -1.8981    0.5346 H   0  0  0  0  0  0  0  0  0  0  0  0
   -0.8402    0.3183   -2.2885 H   0  0  0  0  0  0  0  0  0  0  0  0
   -1.2270    1.7027   -1.2806 H   0  0  0  0  0  0  0  0  0  0  0  0
   -2.2247    0.2357   -1.1773 H   0  0  0  0  0  0  0  0  0  0  0  0
  1  2  1  0
  2  3  1  0
  3  4  1  0
  3  5  1  0
  3  6  1  0
  1  7  1  0
  1  8  1  0
  1  9  1  0
  4 10  1  0
  4 11  1  0
  4 12  1  0
  5 13  1  0
  5 14  1  0
  5 15  1  0
  6 16  1  0
  6 17  1  0
  6 18  1  0
M  END
$$$$
