OMPs000210
     RDKit          3D

 29 30  0  0  0  0  0  0  0  0999 V2000
    4.9444    0.6541    0.4148 C   0  0  0  0  0  0  0  0  0  0  0  0
    4.3255   -0.0632   -0.6453 O   0  0  0  0  0  0  0  0  0  0  0  0
    2.9752   -0.2599   -0.5597 C   0  0  0  0  0  0  0  0  0  0  0  0
    2.1464    0.1819    0.4733 C   0  0  0  0  0  0  0  0  0  0  0  0
    0.7706   -0.0828    0.4391 C   0  0  0  0  0  0  0  0  0  0  0  0
    0.2109   -0.7838   -0.6367 C   0  0  0  0  0  0  0  0  0  0  0  0
    1.0546   -1.2526   -1.6515 C   0  0  0  0  0  0  0  0  0  0  0  0
    0.6011   -1.9912   -2.7127 O   0  0  0  0  0  0  0  0  0  0  0  0
    2.4211   -0.9809   -1.6200 C   0  0  0  0  0  0  0  0  0  0  0  0
   -1.2454   -1.0719   -0.7027 C   0  0  0  0  0  0  0  0  0  0  0  0
   -1.6239   -2.0563   -1.3375 O   0  0  0  0  0  0  0  0  0  0  0  0
   -2.2534   -0.2060   -0.0490 C   0  0  0  0  0  0  0  0  0  0  0  0
   -3.3396   -0.8123    0.5911 C   0  0  0  0  0  0  0  0  0  0  0  0
   -4.3138   -0.0244    1.2050 C   0  0  0  0  0  0  0  0  0  0  0  0
   -4.2115    1.3665    1.1671 C   0  0  0  0  0  0  0  0  0  0  0  0
   -3.1417    1.9734    0.5080 C   0  0  0  0  0  0  0  0  0  0  0  0
   -2.1638    1.1898   -0.1074 C   0  0  0  0  0  0  0  0  0  0  0  0
    4.5524    1.6743    0.4826 H   0  0  0  0  0  0  0  0  0  0  0  0
    4.8348    0.1240    1.3666 H   0  0  0  0  0  0  0  0  0  0  0  0
    6.0138    0.7225    0.1930 H   0  0  0  0  0  0  0  0  0  0  0  0
    2.5391    0.7303    1.3237 H   0  0  0  0  0  0  0  0  0  0  0  0
    0.1579    0.2543    1.2715 H   0  0  0  0  0  0  0  0  0  0  0  0
   -0.3220   -2.2666   -2.5109 H   0  0  0  0  0  0  0  0  0  0  0  0
    3.0592   -1.3427   -2.4223 H   0  0  0  0  0  0  0  0  0  0  0  0
   -3.4292   -1.8965    0.6105 H   0  0  0  0  0  0  0  0  0  0  0  0
   -5.1567   -0.4951    1.7053 H   0  0  0  0  0  0  0  0  0  0  0  0
   -4.9753    1.9789    1.6409 H   0  0  0  0  0  0  0  0  0  0  0  0
   -3.0773    3.0581    0.4641 H   0  0  0  0  0  0  0  0  0  0  0  0
   -1.3536    1.6782   -0.6428 H   0  0  0  0  0  0  0  0  0  0  0  0
  1  2  1  0
  2  3  1  0
  3  4  2  0
  4  5  1  0
  5  6  2  0
  6  7  1  0
  7  8  1  0
  7  9  2  0
  6 10  1  0
 10 11  2  0
 10 12  1  0
 12 13  2  0
 13 14  1  0
 14 15  2  0
 15 16  1  0
 16 17  2  0
  9  3  1  0
 17 12  1  0
  1 18  1  0
  1 19  1  0
  1 20  1  0
  4 21  1  0
  5 22  1  0
  8 23  1  0
  9 24  1  0
 13 25  1  0
 14 26  1  0
 15 27  1  0
 16 28  1  0
 17 29  1  0
M  END
$$$$
