OMPs000021
     RDKit          3D

  7  6  0  0  0  0  0  0  0  0999 V2000
    1.4191   -0.3693    0.5306 O   0  0  0  0  0  0  0  0  0  0  0  0
    0.0044   -0.0898    0.2473 B   0  0  0  0  0  0  0  0  0  0  0  0
   -0.7806   -1.2376   -0.2357 O   0  0  0  0  0  0  0  0  0  0  0  0
   -0.3051    1.1684   -0.4536 O   0  0  0  0  0  0  0  0  0  0  0  0
    1.8858   -0.3246   -0.3349 H   0  0  0  0  0  0  0  0  0  0  0  0
   -1.7055   -1.0462    0.0841 H   0  0  0  0  0  0  0  0  0  0  0  0
   -0.5182    1.8992    0.1621 H   0  0  0  0  0  0  0  0  0  0  0  0
  1  2  1  0
  2  3  1  0
  2  4  1  0
  1  5  1  0
  3  6  1  0
  4  7  1  0
M  END
$$$$
