OMPs000116
     RDKit          3D

 14 14  0  0  0  0  0  0  0  0999 V2000
    2.0913    0.4855   -0.8837 N   0  0  0  0  0  0  0  0  0  0  0  0
    0.8568    0.1707   -0.3026 C   0  0  0  0  0  0  0  0  0  0  0  0
    0.2168   -1.0313   -0.6160 C   0  0  0  0  0  0  0  0  0  0  0  0
   -1.0665   -1.3036   -0.1346 C   0  0  0  0  0  0  0  0  0  0  0  0
   -1.7390   -0.3547    0.6317 C   0  0  0  0  0  0  0  0  0  0  0  0
   -1.1346    0.8714    0.8990 C   0  0  0  0  0  0  0  0  0  0  0  0
    0.1488    1.1383    0.4150 C   0  0  0  0  0  0  0  0  0  0  0  0
    2.6109    1.1944   -0.3762 H   0  0  0  0  0  0  0  0  0  0  0  0
    2.6586   -0.3279   -1.0997 H   0  0  0  0  0  0  0  0  0  0  0  0
    0.7140   -1.7692   -1.2396 H   0  0  0  0  0  0  0  0  0  0  0  0
   -1.5444   -2.2504   -0.3712 H   0  0  0  0  0  0  0  0  0  0  0  0
   -2.7393   -0.5619    1.0018 H   0  0  0  0  0  0  0  0  0  0  0  0
   -1.6658    1.6270    1.4714 H   0  0  0  0  0  0  0  0  0  0  0  0
    0.5924    2.1118    0.6048 H   0  0  0  0  0  0  0  0  0  0  0  0
  1  2  1  0
  2  3  2  0
  3  4  1  0
  4  5  2  0
  5  6  1  0
  6  7  2  0
  7  2  1  0
  1  8  1  0
  1  9  1  0
  3 10  1  0
  4 11  1  0
  5 12  1  0
  6 13  1  0
  7 14  1  0
M  END
$$$$
