OMPs000224
     RDKit          3D

 22 23  0  0  0  0  0  0  0  0999 V2000
   -3.9502    1.0498   -0.7486 O   0  0  0  0  0  0  0  0  0  0  0  0
   -3.3211   -0.3531   -0.2575 S   0  0  0  0  0  6  0  0  0  0  0  0
   -3.9290   -0.6985    1.0065 O   0  0  0  0  0  0  0  0  0  0  0  0
   -3.4049   -1.2179   -1.4151 O   0  0  0  0  0  0  0  0  0  0  0  0
   -1.6156    0.0071    0.0450 C   0  0  0  0  0  0  0  0  0  0  0  0
   -1.2724    1.2079    0.6662 C   0  0  0  0  0  0  0  0  0  0  0  0
    0.0736    1.5044    0.8835 C   0  0  0  0  0  0  0  0  0  0  0  0
    1.0803    0.6110    0.4788 C   0  0  0  0  0  0  0  0  0  0  0  0
    2.4378    0.8981    0.6912 C   0  0  0  0  0  0  0  0  0  0  0  0
    3.4287    0.0032    0.2841 C   0  0  0  0  0  0  0  0  0  0  0  0
    3.0759   -1.1896   -0.3402 C   0  0  0  0  0  0  0  0  0  0  0  0
    1.7311   -1.4919   -0.5593 C   0  0  0  0  0  0  0  0  0  0  0  0
    0.7218   -0.6035   -0.1560 C   0  0  0  0  0  0  0  0  0  0  0  0
   -0.6333   -0.8959   -0.3703 C   0  0  0  0  0  0  0  0  0  0  0  0
   -4.3317    0.9005   -1.6398 H   0  0  0  0  0  0  0  0  0  0  0  0
   -2.0405    1.9079    0.9874 H   0  0  0  0  0  0  0  0  0  0  0  0
    0.3346    2.4403    1.3738 H   0  0  0  0  0  0  0  0  0  0  0  0
    2.7355    1.8243    1.1780 H   0  0  0  0  0  0  0  0  0  0  0  0
    4.4760    0.2383    0.4557 H   0  0  0  0  0  0  0  0  0  0  0  0
    3.8475   -1.8869   -0.6567 H   0  0  0  0  0  0  0  0  0  0  0  0
    1.4775   -2.4303   -1.0482 H   0  0  0  0  0  0  0  0  0  0  0  0
   -0.9216   -1.8252   -0.8584 H   0  0  0  0  0  0  0  0  0  0  0  0
  1  2  1  0
  2  3  2  0
  2  4  2  0
  2  5  1  0
  5  6  2  0
  6  7  1  0
  7  8  2  0
  8  9  1  0
  9 10  2  0
 10 11  1  0
 11 12  2  0
 12 13  1  0
 13 14  2  0
 14  5  1  0
 13  8  1  0
  1 15  1  0
  6 16  1  0
  7 17  1  0
  9 18  1  0
 10 19  1  0
 11 20  1  0
 12 21  1  0
 14 22  1  0
M  END
$$$$
