OMPs000025
     RDKit          3D

 16 15  0  0  0  0  0  0  0  0999 V2000
    3.0527   -0.2225   -0.2008 O   0  0  0  0  0  0  0  0  0  0  0  0
    1.8739    0.4760    0.1748 C   0  0  0  0  0  0  0  0  0  0  0  0
    0.6522   -0.3888   -0.1051 C   0  0  0  0  0  0  0  0  0  0  0  0
   -0.6388    0.3158    0.2960 C   0  0  0  0  0  0  0  0  0  0  0  0
   -1.8593   -0.5548    0.0297 C   0  0  0  0  0  0  0  0  0  0  0  0
   -3.0363    0.1336    0.4292 O   0  0  0  0  0  0  0  0  0  0  0  0
    3.0037   -0.3929   -1.1568 H   0  0  0  0  0  0  0  0  0  0  0  0
    1.9475    0.7127    1.2408 H   0  0  0  0  0  0  0  0  0  0  0  0
    1.8342    1.4167   -0.3837 H   0  0  0  0  0  0  0  0  0  0  0  0
    0.7505   -1.3394    0.4338 H   0  0  0  0  0  0  0  0  0  0  0  0
    0.6259   -0.6495   -1.1705 H   0  0  0  0  0  0  0  0  0  0  0  0
   -0.6111    0.5848    1.3593 H   0  0  0  0  0  0  0  0  0  0  0  0
   -0.7390    1.2620   -0.2501 H   0  0  0  0  0  0  0  0  0  0  0  0
   -1.8044   -1.4874    0.5997 H   0  0  0  0  0  0  0  0  0  0  0  0
   -1.9470   -0.8062   -1.0322 H   0  0  0  0  0  0  0  0  0  0  0  0
   -3.1047    0.9400   -0.1098 H   0  0  0  0  0  0  0  0  0  0  0  0
  1  2  1  0
  2  3  1  0
  3  4  1  0
  4  5  1  0
  5  6  1  0
  1  7  1  0
  2  8  1  0
  2  9  1  0
  3 10  1  0
  3 11  1  0
  4 12  1  0
  4 13  1  0
  5 14  1  0
  5 15  1  0
  6 16  1  0
M  END
$$$$
