OMPs000096
     RDKit          3D

 31 32  0  0  0  0  0  0  0  0999 V2000
    0.0000    0.0000    0.0000 Na  0  0  0  0  0 15  0  0  0  0  0  0
    0.2302    3.6509   -2.2946 O   0  0  0  0  0  0  0  0  0  0  0  0
   -0.0116    2.9317   -1.3328 C   0  0  0  0  0  0  0  0  0  0  0  0
    0.0914    1.5837   -1.4199 N   0  0  0  0  0  0  0  0  0  0  0  0
   -0.1002    0.9236   -0.1638 C   0  0  0  0  0  0  0  0  0  0  0  0
   -0.4461    2.2013    0.6494 C   0  0  0  0  0  0  0  0  0  0  0  0
   -0.7251    2.1903    1.8495 O   0  0  0  0  0  0  0  0  0  0  0  0
   -0.3786    3.2993   -0.1174 N   0  0  0  0  0  0  0  0  0  0  0  0
    1.2202    0.2310    0.2310 C   0  0  0  0  0  0  0  0  0  0  0  0
    1.6422   -0.9214   -0.4648 C   0  0  0  0  0  0  0  0  0  0  0  0
    2.8372   -1.5677   -0.1394 C   0  0  0  0  0  0  0  0  0  0  0  0
    3.6397   -1.0715    0.8840 C   0  0  0  0  0  0  0  0  0  0  0  0
    3.2484    0.0704    1.5783 C   0  0  0  0  0  0  0  0  0  0  0  0
    2.0521    0.7166    1.2534 C   0  0  0  0  0  0  0  0  0  0  0  0
   -1.2953   -0.0504   -0.1757 C   0  0  0  0  0  0  0  0  0  0  0  0
   -1.6311   -0.7587    0.9942 C   0  0  0  0  0  0  0  0  0  0  0  0
   -2.6962   -1.6618    1.0125 C   0  0  0  0  0  0  0  0  0  0  0  0
   -3.4519   -1.8706   -0.1381 C   0  0  0  0  0  0  0  0  0  0  0  0
   -3.1480   -1.1705   -1.3032 C   0  0  0  0  0  0  0  0  0  0  0  0
   -2.0818   -0.2668   -1.3216 C   0  0  0  0  0  0  0  0  0  0  0  0
    0.5298    1.1689   -2.2226 H   0  0  0  0  0  0  0  0  0  0  0  0
    1.0277   -1.3214   -1.2687 H   0  0  0  0  0  0  0  0  0  0  0  0
    3.1381   -2.4549   -0.6881 H   0  0  0  0  0  0  0  0  0  0  0  0
    4.5707   -1.5688    1.1376 H   0  0  0  0  0  0  0  0  0  0  0  0
    3.8718    0.4699    2.3730 H   0  0  0  0  0  0  0  0  0  0  0  0
    1.7772    1.6132    1.8071 H   0  0  0  0  0  0  0  0  0  0  0  0
   -1.0609   -0.5867    1.9065 H   0  0  0  0  0  0  0  0  0  0  0  0
   -2.9379   -2.1881    1.9309 H   0  0  0  0  0  0  0  0  0  0  0  0
   -4.2863   -2.5649   -0.1222 H   0  0  0  0  0  0  0  0  0  0  0  0
   -3.7463   -1.3130   -2.1982 H   0  0  0  0  0  0  0  0  0  0  0  0
   -1.8796    0.2865   -2.2361 H   0  0  0  0  0  0  0  0  0  0  0  0
  2  3  2  0
  3  4  1  0
  4  5  1  0
  5  6  1  0
  6  7  2  0
  6  8  1  0
  5  9  1  0
  9 10  2  0
 10 11  1  0
 11 12  2  0
 12 13  1  0
 13 14  2  0
  5 15  1  0
 15 16  2  0
 16 17  1  0
 17 18  2  0
 18 19  1  0
 19 20  2  0
  8  3  1  0
 14  9  1  0
 20 15  1  0
  4 21  1  0
 10 22  1  0
 11 23  1  0
 12 24  1  0
 13 25  1  0
 14 26  1  0
 16 27  1  0
 17 28  1  0
 18 29  1  0
 19 30  1  0
 20 31  1  0
M  CHG  2   1   1   8  -1
M  END
$$$$
