OMPs000147
     RDKit          3D

  8  7  0  0  0  0  0  0  0  0999 V2000
    1.3321    0.6272   -0.6419 O   0  0  0  0  0  0  0  0  0  0  0  0
    0.5970   -0.2577    0.0826 C   0  0  0  0  0  0  0  0  0  0  0  0
    1.1896   -1.1825    0.6242 O   0  0  0  0  0  0  0  0  0  0  0  0
   -0.9096    0.0405    0.1162 C   0  0  0  0  0  0  0  0  0  0  0  0
   -1.7581   -1.1868    1.0938 Cl  0  0  0  0  0  0  0  0  0  0  0  0
   -1.5429    0.0055   -1.5512 Cl  0  0  0  0  0  0  0  0  0  0  0  0
   -1.1640    1.6500    0.8422 Cl  0  0  0  0  0  0  0  0  0  0  0  0
    2.2559    0.3038   -0.5659 H   0  0  0  0  0  0  0  0  0  0  0  0
  1  2  1  0
  2  3  2  0
  2  4  1  0
  4  5  1  0
  4  6  1  0
  4  7  1  0
  1  8  1  0
M  END
$$$$
