OMPs000018
     RDKit          3D

  6  5  0  0  0  0  0  0  0  0999 V2000
   -0.3710    0.0073   -0.0095 C   0  0  0  0  0  0  0  0  0  0  0  0
    0.9181   -0.5026   -0.2965 O   0  0  0  0  0  0  0  0  0  0  0  0
   -0.5227    0.0287    1.0725 H   0  0  0  0  0  0  0  0  0  0  0  0
   -0.4654    1.0150   -0.4214 H   0  0  0  0  0  0  0  0  0  0  0  0
   -1.1203   -0.6427   -0.4674 H   0  0  0  0  0  0  0  0  0  0  0  0
    1.5613    0.0944    0.1223 H   0  0  0  0  0  0  0  0  0  0  0  0
  1  2  1  0
  1  3  1  0
  1  4  1  0
  1  5  1  0
  2  6  1  0
M  END
$$$$
