OMPs000069
     RDKit          3D

 24 25  0  0  0  0  0  0  0  0999 V2000
   -3.1145    1.1475    0.3005 C   0  0  0  0  0  0  0  0  0  0  0  0
   -2.1172    0.1135    0.4112 N   0  0  0  0  0  0  0  0  0  0  0  0
   -2.3246   -1.1667    0.8523 C   0  0  0  0  0  0  0  0  0  0  0  0
   -1.2112   -1.8727    0.8367 N   0  0  0  0  0  0  0  0  0  0  0  0
   -0.2681   -1.0079    0.3694 C   0  0  0  0  0  0  0  0  0  0  0  0
    1.0630   -1.2864    0.1752 N   0  0  0  0  0  0  0  0  0  0  0  0
    1.5809   -2.6084    0.4764 C   0  0  0  0  0  0  0  0  0  0  0  0
    1.9055   -0.2869   -0.3127 C   0  0  0  0  0  0  0  0  0  0  0  0
    3.1091   -0.4842   -0.5052 O   0  0  0  0  0  0  0  0  0  0  0  0
    1.3255    0.9710   -0.5809 N   0  0  0  0  0  0  0  0  0  0  0  0
    2.2199    1.9936   -1.0870 C   0  0  0  0  0  0  0  0  0  0  0  0
   -0.0204    1.3033   -0.4003 C   0  0  0  0  0  0  0  0  0  0  0  0
   -0.5026    2.4060   -0.6409 O   0  0  0  0  0  0  0  0  0  0  0  0
   -0.7922    0.2195    0.0989 C   0  0  0  0  0  0  0  0  0  0  0  0
   -4.0822    0.7570    0.6257 H   0  0  0  0  0  0  0  0  0  0  0  0
   -2.8212    1.9839    0.9398 H   0  0  0  0  0  0  0  0  0  0  0  0
   -3.1764    1.4610   -0.7446 H   0  0  0  0  0  0  0  0  0  0  0  0
   -3.2941   -1.5301    1.1696 H   0  0  0  0  0  0  0  0  0  0  0  0
    1.0568   -3.3463   -0.1393 H   0  0  0  0  0  0  0  0  0  0  0  0
    2.6524   -2.6828    0.2736 H   0  0  0  0  0  0  0  0  0  0  0  0
    1.4100   -2.8264    1.5354 H   0  0  0  0  0  0  0  0  0  0  0  0
    2.6699    1.6419   -2.0212 H   0  0  0  0  0  0  0  0  0  0  0  0
    3.0205    2.1581   -0.3583 H   0  0  0  0  0  0  0  0  0  0  0  0
    1.7112    2.9425   -1.2742 H   0  0  0  0  0  0  0  0  0  0  0  0
  1  2  1  0
  2  3  1  0
  3  4  2  0
  4  5  1  0
  5  6  1  0
  6  7  1  0
  6  8  1  0
  8  9  2  0
  8 10  1  0
 10 11  1  0
 10 12  1  0
 12 13  2  0
 12 14  1  0
 14  2  1  0
 14  5  2  0
  1 15  1  0
  1 16  1  0
  1 17  1  0
  3 18  1  0
  7 19  1  0
  7 20  1  0
  7 21  1  0
 11 22  1  0
 11 23  1  0
 11 24  1  0
M  END
$$$$
