OMPs000143
     RDKit          3D

 25 26  0  0  0  0  0  0  0  0999 V2000
    3.6544   -1.1353   -0.7075 N   0  0  0  0  0  0  0  0  0  0  0  0
    3.4050    0.3575    0.0300 S   0  0  0  0  0  6  0  0  0  0  0  0
    3.9649    0.2127    1.3521 O   0  0  0  0  0  0  0  0  0  0  0  0
    3.8709    1.3235   -0.9359 O   0  0  0  0  0  0  0  0  0  0  0  0
    1.6539    0.5019    0.1712 C   0  0  0  0  0  0  0  0  0  0  0  0
    0.8225   -0.5339   -0.2655 C   0  0  0  0  0  0  0  0  0  0  0  0
   -0.5652   -0.3922   -0.1487 C   0  0  0  0  0  0  0  0  0  0  0  0
   -1.1597    0.7566    0.3775 C   0  0  0  0  0  0  0  0  0  0  0  0
   -2.5367    0.8787    0.5997 N   0  0  0  0  0  0  0  0  0  0  0  0
   -3.4195    0.0451   -0.1822 C   0  0  0  0  0  0  0  0  0  0  0  0
   -3.0607   -1.3274    0.0409 N   0  0  0  0  0  0  0  0  0  0  0  0
   -1.5962   -1.7260   -0.6562 S   0  0  0  0  0  6  0  0  0  0  0  0
   -1.7306   -1.6342   -2.0922 O   0  0  0  0  0  0  0  0  0  0  0  0
   -1.1307   -2.9235    0.0057 O   0  0  0  0  0  0  0  0  0  0  0  0
   -0.3025    1.7622    0.8451 C   0  0  0  0  0  0  0  0  0  0  0  0
    1.0939    1.6511    0.7329 C   0  0  0  0  0  0  0  0  0  0  0  0
    2.0298    2.9749    1.3276 Cl  0  0  0  0  0  0  0  0  0  0  0  0
    4.1805   -1.7397   -0.0728 H   0  0  0  0  0  0  0  0  0  0  0  0
    4.1233   -0.9924   -1.6044 H   0  0  0  0  0  0  0  0  0  0  0  0
    1.2290   -1.4507   -0.6867 H   0  0  0  0  0  0  0  0  0  0  0  0
   -2.8446    1.8496    0.6184 H   0  0  0  0  0  0  0  0  0  0  0  0
   -3.4067    0.3171   -1.2437 H   0  0  0  0  0  0  0  0  0  0  0  0
   -4.4457    0.1958    0.1691 H   0  0  0  0  0  0  0  0  0  0  0  0
   -3.1054   -1.6224    1.0132 H   0  0  0  0  0  0  0  0  0  0  0  0
   -0.7240    2.6509    1.3125 H   0  0  0  0  0  0  0  0  0  0  0  0
  1  2  1  0
  2  3  2  0
  2  4  2  0
  2  5  1  0
  5  6  2  0
  6  7  1  0
  7  8  2  0
  8  9  1  0
  9 10  1  0
 10 11  1  0
 11 12  1  0
 12 13  2  0
 12 14  2  0
  8 15  1  0
 15 16  2  0
 16 17  1  0
 16  5  1  0
 12  7  1  0
  1 18  1  0
  1 19  1  0
  6 20  1  0
  9 21  1  0
 10 22  1  0
 10 23  1  0
 11 24  1  0
 15 25  1  0
M  END
$$$$
