OMPs000110
     RDKit          3D

 40 40  0  0  0  0  0  0  0  0999 V2000
   -4.7559    0.6963    1.8796 C   0  0  0  0  0  0  0  0  0  0  0  0
   -3.8416    0.2176    0.7904 C   0  0  0  0  0  0  0  0  0  0  0  0
   -4.2963    0.1345   -0.5275 C   0  0  0  0  0  0  0  0  0  0  0  0
   -3.4538   -0.3385   -1.5325 C   0  0  0  0  0  0  0  0  0  0  0  0
   -2.1467   -0.7480   -1.2333 C   0  0  0  0  0  0  0  0  0  0  0  0
   -1.2514   -1.2428   -2.3359 C   0  0  0  0  0  0  0  0  0  0  0  0
   -1.6840   -0.6792    0.0933 C   0  0  0  0  0  0  0  0  0  0  0  0
   -0.3966   -1.1037    0.2853 O   0  0  0  0  0  0  0  0  0  0  0  0
    0.1997   -0.9990    1.5738 C   0  0  0  0  0  0  0  0  0  0  0  0
    0.7599    0.3959    1.8447 C   0  0  0  0  0  0  0  0  0  0  0  0
    1.5770    1.0423    0.7138 C   0  0  0  0  0  0  0  0  0  0  0  0
    2.9290    0.4012    0.2871 C   0  0  0  0  0  0  0  0  0  0  0  0
    3.7567   -0.0150    1.5136 C   0  0  0  0  0  0  0  0  0  0  0  0
    2.7345   -0.8003   -0.6490 C   0  0  0  0  0  0  0  0  0  0  0  0
    3.6922    1.4516   -0.5276 C   0  0  0  0  0  0  0  0  0  0  0  0
    5.0235    1.2496   -0.5763 O   0  0  0  0  0  0  0  0  0  0  0  0
    3.2083    2.3843   -1.1498 O   0  0  0  0  0  0  0  0  0  0  0  0
   -2.5376   -0.2038    1.0942 C   0  0  0  0  0  0  0  0  0  0  0  0
   -4.1929    1.2229    2.6574 H   0  0  0  0  0  0  0  0  0  0  0  0
   -5.2761   -0.1538    2.3316 H   0  0  0  0  0  0  0  0  0  0  0  0
   -5.4998    1.3977    1.4873 H   0  0  0  0  0  0  0  0  0  0  0  0
   -5.3086    0.4398   -0.7822 H   0  0  0  0  0  0  0  0  0  0  0  0
   -3.8245   -0.3868   -2.5538 H   0  0  0  0  0  0  0  0  0  0  0  0
   -0.8921   -2.2524   -2.1118 H   0  0  0  0  0  0  0  0  0  0  0  0
   -0.3964   -0.5701   -2.4577 H   0  0  0  0  0  0  0  0  0  0  0  0
   -1.7803   -1.2873   -3.2939 H   0  0  0  0  0  0  0  0  0  0  0  0
    1.0191   -1.7240    1.6014 H   0  0  0  0  0  0  0  0  0  0  0  0
   -0.4785   -1.3263    2.3700 H   0  0  0  0  0  0  0  0  0  0  0  0
    1.3394    0.3798    2.7745 H   0  0  0  0  0  0  0  0  0  0  0  0
   -0.0836    1.0701    2.0397 H   0  0  0  0  0  0  0  0  0  0  0  0
    1.7823    2.0699    1.0487 H   0  0  0  0  0  0  0  0  0  0  0  0
    0.9354    1.1592   -0.1701 H   0  0  0  0  0  0  0  0  0  0  0  0
    3.2522   -0.7877    2.1020 H   0  0  0  0  0  0  0  0  0  0  0  0
    3.9481    0.8437    2.1671 H   0  0  0  0  0  0  0  0  0  0  0  0
    4.7300   -0.4292    1.2265 H   0  0  0  0  0  0  0  0  0  0  0  0
    3.6894   -1.1232   -1.0814 H   0  0  0  0  0  0  0  0  0  0  0  0
    2.0760   -0.5467   -1.4874 H   0  0  0  0  0  0  0  0  0  0  0  0
    2.3133   -1.6663   -0.1346 H   0  0  0  0  0  0  0  0  0  0  0  0
    5.3461    1.9726   -1.1545 H   0  0  0  0  0  0  0  0  0  0  0  0
   -2.2159   -0.1450    2.1281 H   0  0  0  0  0  0  0  0  0  0  0  0
  1  2  1  0
  2  3  2  0
  3  4  1  0
  4  5  2  0
  5  6  1  0
  5  7  1  0
  7  8  1  0
  8  9  1  0
  9 10  1  0
 10 11  1  0
 11 12  1  0
 12 13  1  0
 12 14  1  0
 12 15  1  0
 15 16  1  0
 15 17  2  0
  7 18  2  0
 18  2  1  0
  1 19  1  0
  1 20  1  0
  1 21  1  0
  3 22  1  0
  4 23  1  0
  6 24  1  0
  6 25  1  0
  6 26  1  0
  9 27  1  0
  9 28  1  0
 10 29  1  0
 10 30  1  0
 11 31  1  0
 11 32  1  0
 13 33  1  0
 13 34  1  0
 13 35  1  0
 14 36  1  0
 14 37  1  0
 14 38  1  0
 16 39  1  0
 18 40  1  0
M  END
$$$$
