OMPs000050
     RDKit          3D

 28 28  0  0  0  0  0  0  0  0999 V2000
    5.0501    0.0641   -0.2378 C   0  0  0  0  0  0  0  0  0  0  0  0
    3.7150    0.6148    0.2381 C   0  0  0  0  0  0  0  0  0  0  0  0
    2.7138   -0.4345    0.1803 N   0  0  0  0  0  0  0  0  0  0  0  0
    1.4269   -0.0505    0.5340 C   0  0  0  0  0  0  0  0  0  0  0  0
    1.2354    0.8888    1.4405 N   0  0  0  0  0  0  0  0  0  0  0  0
   -0.0423    1.1264    1.6851 C   0  0  0  0  0  0  0  0  0  0  0  0
   -0.3687    2.3433    2.8411 Cl  0  0  0  0  0  0  0  0  0  0  0  0
   -1.1000    0.5616    1.1271 N   0  0  0  0  0  0  0  0  0  0  0  0
   -0.7975   -0.3588    0.2341 C   0  0  0  0  0  0  0  0  0  0  0  0
   -1.7836   -1.0603   -0.4292 N   0  0  0  0  0  0  0  0  0  0  0  0
   -3.0970   -0.4867   -0.7020 C   0  0  0  0  0  0  0  0  0  0  0  0
   -3.9577   -0.3762    0.5535 C   0  0  0  0  0  0  0  0  0  0  0  0
   -3.0136    0.8285   -1.4721 C   0  0  0  0  0  0  0  0  0  0  0  0
    0.4468   -0.6873   -0.0983 N   0  0  0  0  0  0  0  0  0  0  0  0
    4.9822   -0.2935   -1.2708 H   0  0  0  0  0  0  0  0  0  0  0  0
    5.3733   -0.7756    0.3866 H   0  0  0  0  0  0  0  0  0  0  0  0
    5.8202    0.8403   -0.1944 H   0  0  0  0  0  0  0  0  0  0  0  0
    3.8351    0.9828    1.2640 H   0  0  0  0  0  0  0  0  0  0  0  0
    3.4270    1.4587   -0.4004 H   0  0  0  0  0  0  0  0  0  0  0  0
    2.6419   -0.9291   -0.7023 H   0  0  0  0  0  0  0  0  0  0  0  0
   -1.3452   -1.5267   -1.2160 H   0  0  0  0  0  0  0  0  0  0  0  0
   -3.6040   -1.2058   -1.3585 H   0  0  0  0  0  0  0  0  0  0  0  0
   -3.6179    0.4162    1.2264 H   0  0  0  0  0  0  0  0  0  0  0  0
   -4.9947   -0.1475    0.2840 H   0  0  0  0  0  0  0  0  0  0  0  0
   -3.9557   -1.3174    1.1138 H   0  0  0  0  0  0  0  0  0  0  0  0
   -2.5857    1.6348   -0.8679 H   0  0  0  0  0  0  0  0  0  0  0  0
   -2.3932    0.7174   -2.3682 H   0  0  0  0  0  0  0  0  0  0  0  0
   -4.0110    1.1499   -1.7907 H   0  0  0  0  0  0  0  0  0  0  0  0
  1  2  1  0
  2  3  1  0
  3  4  1  0
  4  5  2  0
  5  6  1  0
  6  7  1  0
  6  8  2  0
  8  9  1  0
  9 10  1  0
 10 11  1  0
 11 12  1  0
 11 13  1  0
  9 14  2  0
 14  4  1  0
  1 15  1  0
  1 16  1  0
  1 17  1  0
  2 18  1  0
  2 19  1  0
  3 20  1  0
 10 21  1  0
 11 22  1  0
 12 23  1  0
 12 24  1  0
 12 25  1  0
 13 26  1  0
 13 27  1  0
 13 28  1  0
M  END
$$$$
