OMPs000080
     RDKit          3D

 28 28  0  0  0  0  0  0  0  0999 V2000
    5.2330   -0.5679    0.3798 C   0  0  0  0  0  0  0  0  0  0  0  0
    4.4601    0.6240    0.4273 O   0  0  0  0  0  0  0  0  0  0  0  0
    3.0971    0.4990    0.3731 C   0  0  0  0  0  0  0  0  0  0  0  0
    2.4159   -0.7113    0.2269 C   0  0  0  0  0  0  0  0  0  0  0  0
    1.0147   -0.7418    0.1797 C   0  0  0  0  0  0  0  0  0  0  0  0
    0.2699    0.4329    0.2852 C   0  0  0  0  0  0  0  0  0  0  0  0
   -1.1382    0.4741    0.2300 N   0  0  0  0  0  0  0  0  0  0  0  0
   -2.0099   -0.5874    0.3355 C   0  0  0  0  0  0  0  0  0  0  0  0
   -1.6846   -1.7251    0.6650 O   0  0  0  0  0  0  0  0  0  0  0  0
   -3.3412   -0.2544    0.0666 N   0  0  0  0  0  0  0  0  0  0  0  0
   -3.7408    0.8000   -0.8571 C   0  0  0  0  0  0  0  0  0  0  0  0
   -4.3326   -1.2956    0.2831 C   0  0  0  0  0  0  0  0  0  0  0  0
    0.9465    1.6479    0.4191 C   0  0  0  0  0  0  0  0  0  0  0  0
    2.3454    1.6795    0.4653 C   0  0  0  0  0  0  0  0  0  0  0  0
    3.1094    3.2234    0.6382 Cl  0  0  0  0  0  0  0  0  0  0  0  0
    5.0979   -1.0873   -0.5746 H   0  0  0  0  0  0  0  0  0  0  0  0
    5.0009   -1.2241    1.2251 H   0  0  0  0  0  0  0  0  0  0  0  0
    6.2874   -0.2857    0.4580 H   0  0  0  0  0  0  0  0  0  0  0  0
    2.9387   -1.6586    0.1425 H   0  0  0  0  0  0  0  0  0  0  0  0
    0.5320   -1.7072    0.0514 H   0  0  0  0  0  0  0  0  0  0  0  0
   -1.5629    1.3780    0.3673 H   0  0  0  0  0  0  0  0  0  0  0  0
   -3.9739    0.3422   -1.8238 H   0  0  0  0  0  0  0  0  0  0  0  0
   -4.6341    1.2935   -0.4634 H   0  0  0  0  0  0  0  0  0  0  0  0
   -2.9647    1.5488   -1.0206 H   0  0  0  0  0  0  0  0  0  0  0  0
   -4.4012   -1.9128   -0.6179 H   0  0  0  0  0  0  0  0  0  0  0  0
   -4.0572   -1.9301    1.1307 H   0  0  0  0  0  0  0  0  0  0  0  0
   -5.3026   -0.8353    0.4927 H   0  0  0  0  0  0  0  0  0  0  0  0
    0.3952    2.5812    0.4925 H   0  0  0  0  0  0  0  0  0  0  0  0
  1  2  1  0
  2  3  1  0
  3  4  2  0
  4  5  1  0
  5  6  2  0
  6  7  1  0
  7  8  1  0
  8  9  2  0
  8 10  1  0
 10 11  1  0
 10 12  1  0
  6 13  1  0
 13 14  2  0
 14 15  1  0
 14  3  1  0
  1 16  1  0
  1 17  1  0
  1 18  1  0
  4 19  1  0
  5 20  1  0
  7 21  1  0
 11 22  1  0
 11 23  1  0
 11 24  1  0
 12 25  1  0
 12 26  1  0
 12 27  1  0
 13 28  1  0
M  END
$$$$
