OMPs000078
     RDKit          3D

 27 27  0  0  0  0  0  0  0  0999 V2000
   -3.3852   -1.1687   -0.9505 C   0  0  0  0  0  0  0  0  0  0  0  0
   -2.9980   -0.8401    0.4156 N   0  0  0  0  0  0  0  0  0  0  0  0
   -4.1014   -0.5616    1.3205 C   0  0  0  0  0  0  0  0  0  0  0  0
   -1.7587   -0.2837    0.7514 C   0  0  0  0  0  0  0  0  0  0  0  0
   -1.6254    0.4525    1.7252 O   0  0  0  0  0  0  0  0  0  0  0  0
   -0.7317   -0.6711   -0.0807 N   0  0  0  0  0  0  0  0  0  0  0  0
    0.5840   -0.1642   -0.1064 C   0  0  0  0  0  0  0  0  0  0  0  0
    1.5365   -0.8872   -0.8321 C   0  0  0  0  0  0  0  0  0  0  0  0
    2.8588   -0.4411   -0.9182 C   0  0  0  0  0  0  0  0  0  0  0  0
    3.2552    0.7441   -0.2856 C   0  0  0  0  0  0  0  0  0  0  0  0
    4.6822    1.2018   -0.3936 C   0  0  0  0  0  0  0  0  0  0  0  0
    2.2928    1.4721    0.4301 C   0  0  0  0  0  0  0  0  0  0  0  0
    2.6983    2.9538    1.2249 Cl  0  0  0  0  0  0  0  0  0  0  0  0
    0.9691    1.0234    0.5164 C   0  0  0  0  0  0  0  0  0  0  0  0
   -3.9243   -0.3141   -1.3717 H   0  0  0  0  0  0  0  0  0  0  0  0
   -2.5350   -1.3825   -1.5996 H   0  0  0  0  0  0  0  0  0  0  0  0
   -4.0435   -2.0421   -0.9314 H   0  0  0  0  0  0  0  0  0  0  0  0
   -4.8538   -1.3504    1.2300 H   0  0  0  0  0  0  0  0  0  0  0  0
   -3.7571   -0.5257    2.3585 H   0  0  0  0  0  0  0  0  0  0  0  0
   -4.5421    0.4047    1.0566 H   0  0  0  0  0  0  0  0  0  0  0  0
   -0.8743   -1.5607   -0.5322 H   0  0  0  0  0  0  0  0  0  0  0  0
    1.2668   -1.8109   -1.3378 H   0  0  0  0  0  0  0  0  0  0  0  0
    3.5776   -1.0293   -1.4853 H   0  0  0  0  0  0  0  0  0  0  0  0
    5.1374    1.2726    0.5995 H   0  0  0  0  0  0  0  0  0  0  0  0
    5.2850    0.4997   -0.9798 H   0  0  0  0  0  0  0  0  0  0  0  0
    4.7346    2.1747   -0.8926 H   0  0  0  0  0  0  0  0  0  0  0  0
    0.2521    1.6235    1.0686 H   0  0  0  0  0  0  0  0  0  0  0  0
  1  2  1  0
  2  3  1  0
  2  4  1  0
  4  5  2  0
  4  6  1  0
  6  7  1  0
  7  8  2  0
  8  9  1  0
  9 10  2  0
 10 11  1  0
 10 12  1  0
 12 13  1  0
 12 14  2  0
 14  7  1  0
  1 15  1  0
  1 16  1  0
  1 17  1  0
  3 18  1  0
  3 19  1  0
  3 20  1  0
  6 21  1  0
  8 22  1  0
  9 23  1  0
 11 24  1  0
 11 25  1  0
 11 26  1  0
 14 27  1  0
M  END
$$$$
