OMPs000124
     RDKit          3D

 17 17  0  0  0  0  0  0  0  0999 V2000
    1.3999   -2.0931    1.0306 O   0  0  0  0  0  0  0  0  0  0  0  0
    0.8315   -1.2113    0.3884 C   0  0  0  0  0  0  0  0  0  0  0  0
    1.5294    0.0802    0.0251 C   0  0  0  0  0  0  0  0  0  0  0  0
    0.6129    1.2719    0.2655 C   0  0  0  0  0  0  0  0  0  0  0  0
   -0.7421    1.0908   -0.4152 C   0  0  0  0  0  0  0  0  0  0  0  0
   -1.4226   -0.1921    0.0570 C   0  0  0  0  0  0  0  0  0  0  0  0
   -0.5516   -1.4165   -0.1881 C   0  0  0  0  0  0  0  0  0  0  0  0
    1.8257    0.0213   -1.0278 H   0  0  0  0  0  0  0  0  0  0  0  0
    2.4367    0.1804    0.6299 H   0  0  0  0  0  0  0  0  0  0  0  0
    1.0926    2.1858   -0.1022 H   0  0  0  0  0  0  0  0  0  0  0  0
    0.4581    1.4017    1.3441 H   0  0  0  0  0  0  0  0  0  0  0  0
   -0.6096    1.0617   -1.5035 H   0  0  0  0  0  0  0  0  0  0  0  0
   -1.3834    1.9506   -0.1910 H   0  0  0  0  0  0  0  0  0  0  0  0
   -1.6416   -0.1085    1.1290 H   0  0  0  0  0  0  0  0  0  0  0  0
   -2.3820   -0.3134   -0.4582 H   0  0  0  0  0  0  0  0  0  0  0  0
   -1.0074   -2.2968    0.2771 H   0  0  0  0  0  0  0  0  0  0  0  0
   -0.4465   -1.6130   -1.2606 H   0  0  0  0  0  0  0  0  0  0  0  0
  1  2  2  0
  2  3  1  0
  3  4  1  0
  4  5  1  0
  5  6  1  0
  6  7  1  0
  7  2  1  0
  3  8  1  0
  3  9  1  0
  4 10  1  0
  4 11  1  0
  5 12  1  0
  5 13  1  0
  6 14  1  0
  6 15  1  0
  7 16  1  0
  7 17  1  0
M  END
$$$$
