OMPs000155
     RDKit          3D

 30 29  0  0  0  0  0  0  0  0999 V2000
    0.0000    0.0000    0.0000 Na  0  0  0  0  0 15  0  0  0  0  0  0
    3.7639   -2.1372    1.7649 C   0  0  0  0  0  0  0  0  0  0  0  0
    2.4052   -1.5865    1.4185 C   0  0  0  0  0  0  0  0  0  0  0  0
    1.3937   -1.9639    1.9977 O   0  0  0  0  0  0  0  0  0  0  0  0
    2.4590   -0.5890    0.4558 N   0  0  0  0  0  0  0  0  0  0  0  0
    1.2944    0.0985    0.0123 C   0  0  0  0  0  0  0  0  0  0  0  0
    0.1500   -0.5697   -0.4917 C   0  0  0  0  0  0  0  0  0  0  0  0
    0.3840   -2.6066   -1.2354 I   0  0  0  0  0  0  0  0  0  0  0  0
   -1.0127    0.1524   -0.8610 C   0  0  0  0  0  0  0  0  0  0  0  0
   -2.2061   -0.4800   -1.3100 N   0  0  0  0  0  0  0  0  0  0  0  0
   -2.8438   -1.4638   -0.5683 C   0  0  0  0  0  0  0  0  0  0  0  0
   -4.1126   -1.9531   -1.2165 C   0  0  0  0  0  0  0  0  0  0  0  0
   -2.4853   -1.8733    0.5294 O   0  0  0  0  0  0  0  0  0  0  0  0
   -0.9706    1.5630   -0.8447 C   0  0  0  0  0  0  0  0  0  0  0  0
   -2.6914    2.6653   -1.4927 I   0  0  0  0  0  0  0  0  0  0  0  0
    0.1836    2.2352   -0.4070 C   0  0  0  0  0  0  0  0  0  0  0  0
    0.2216    3.7017   -0.4168 C   0  0  0  0  0  0  0  0  0  0  0  0
   -0.2118    4.1851    0.7581 O   0  0  0  0  0  0  0  0  0  0  0  0
    0.5871    4.4011   -1.3394 O   0  0  0  0  0  0  0  0  0  0  0  0
    1.3097    1.5097    0.0184 C   0  0  0  0  0  0  0  0  0  0  0  0
    3.0718    2.5306    0.6887 I   0  0  0  0  0  0  0  0  0  0  0  0
    4.1241   -1.6569    2.6783 H   0  0  0  0  0  0  0  0  0  0  0  0
    3.6846   -3.2167    1.9207 H   0  0  0  0  0  0  0  0  0  0  0  0
    4.4814   -1.9615    0.9581 H   0  0  0  0  0  0  0  0  0  0  0  0
    3.3016   -0.0254    0.5103 H   0  0  0  0  0  0  0  0  0  0  0  0
   -2.8498    0.1184   -1.8181 H   0  0  0  0  0  0  0  0  0  0  0  0
   -4.1085   -1.7607   -2.2933 H   0  0  0  0  0  0  0  0  0  0  0  0
   -4.9671   -1.4444   -0.7629 H   0  0  0  0  0  0  0  0  0  0  0  0
   -4.2005   -3.0324   -1.0638 H   0  0  0  0  0  0  0  0  0  0  0  0
   -0.1552    5.1601    0.6687 H   0  0  0  0  0  0  0  0  0  0  0  0
  2  3  1  0
  3  4  2  0
  3  5  1  0
  5  6  1  0
  6  7  2  0
  7  8  1  0
  7  9  1  0
  9 10  1  0
 10 11  1  0
 11 12  1  0
 11 13  2  0
  9 14  2  0
 14 15  1  0
 14 16  1  0
 16 17  1  0
 17 18  1  0
 17 19  2  0
 16 20  2  0
 20 21  1  0
 20  6  1  0
  2 22  1  0
  2 23  1  0
  2 24  1  0
  5 25  1  0
 10 26  1  0
 12 27  1  0
 12 28  1  0
 12 29  1  0
 18 30  1  0
M  END
$$$$
