OMPs000194
     RDKit          3D

  8  7  0  0  0  0  0  0  0  0999 V2000
    1.3199    0.4413   -0.8026 O   0  0  0  0  0  0  0  0  0  0  0  0
    0.5976   -0.2581    0.1109 C   0  0  0  0  0  0  0  0  0  0  0  0
    1.2062   -1.0052    0.8668 O   0  0  0  0  0  0  0  0  0  0  0  0
   -0.9064    0.0237    0.0941 C   0  0  0  0  0  0  0  0  0  0  0  0
   -1.7762   -1.1444    1.1110 Cl  0  0  0  0  0  0  0  0  0  0  0  0
   -1.5365   -0.0301   -1.5649 Cl  0  0  0  0  0  0  0  0  0  0  0  0
   -1.1532    1.8114    0.8356 Br  0  0  0  0  0  0  0  0  0  0  0  0
    2.2486    0.1615   -0.6510 H   0  0  0  0  0  0  0  0  0  0  0  0
  1  2  1  0
  2  3  2  0
  2  4  1  0
  4  5  1  0
  4  6  1  0
  4  7  1  0
  1  8  1  0
M  END
$$$$
