OMPs000132
     RDKit          3D

 37 38  0  0  0  0  0  0  0  0999 V2000
    0.0000    0.0000    0.0000 Na  0  0  0  0  0 15  0  0  0  0  0  0
    0.0000    0.0000    0.0000 Na  0  0  0  0  0 15  0  0  0  0  0  0
   -1.2290    0.1140    2.7292 O   0  0  0  0  0  0  0  0  0  0  0  0
   -1.8457   -0.8973    2.2718 C   0  0  0  0  0  0  0  0  0  0  0  0
   -2.3083   -1.8556    2.9711 O   0  0  0  0  0  0  0  0  0  0  0  0
   -2.1527   -0.9371    0.7883 C   0  0  0  0  0  0  0  0  0  0  0  0
   -3.4075   -1.4605    0.4013 C   0  0  0  0  0  0  0  0  0  0  0  0
   -3.8034   -1.5171   -0.9353 C   0  0  0  0  0  0  0  0  0  0  0  0
   -2.9494   -1.0513   -1.9248 C   0  0  0  0  0  0  0  0  0  0  0  0
   -1.7010   -0.5395   -1.5721 C   0  0  0  0  0  0  0  0  0  0  0  0
   -1.2812   -0.4798   -0.2235 C   0  0  0  0  0  0  0  0  0  0  0  0
    0.1023    0.0463   -0.0022 C   0  0  0  0  0  0  0  0  0  0  0  0
    0.2985    1.3449    0.3572 C   0  0  0  0  0  0  0  0  0  0  0  0
   -0.8250    2.2535    0.6097 C   0  0  0  0  0  0  0  0  0  0  0  0
   -0.6579    3.5058    1.0525 C   0  0  0  0  0  0  0  0  0  0  0  0
   -2.1146    4.6298    1.3907 Br  0  0  0  0  0  0  0  0  0  0  0  0
    0.7184    4.0427    1.2686 C   0  0  0  0  0  0  0  0  0  0  0  0
    0.8965    5.1961    1.6635 O   0  0  0  0  0  0  0  0  0  0  0  0
    1.8689    3.1434    0.9343 C   0  0  0  0  0  0  0  0  0  0  0  0
    1.6561    1.8890    0.4942 C   0  0  0  0  0  0  0  0  0  0  0  0
    2.7450    1.1117    0.1244 O   0  0  0  0  0  0  0  0  0  0  0  0
    2.5740   -0.1878   -0.2823 C   0  0  0  0  0  0  0  0  0  0  0  0
    3.7246   -0.9148   -0.6861 C   0  0  0  0  0  0  0  0  0  0  0  0
    5.4165    0.0256   -0.6361 Br  0  0  0  0  0  0  0  0  0  0  0  0
    3.6835   -2.2690   -1.1358 C   0  0  0  0  0  0  0  0  0  0  0  0
    4.7146   -2.9170   -1.5438 O   0  0  0  0  0  0  0  0  0  0  0  0
    2.3769   -2.8270   -1.0873 C   0  0  0  0  0  0  0  0  0  0  0  0
    2.0486   -4.6491   -1.6112 Br  0  0  0  0  0  0  0  0  0  0  0  0
    1.2323   -2.1090   -0.6836 C   0  0  0  0  0  0  0  0  0  0  0  0
    1.3131   -0.7674   -0.3075 C   0  0  0  0  0  0  0  0  0  0  0  0
    3.5914    3.8781    1.1111 Br  0  0  0  0  0  0  0  0  0  0  0  0
   -4.0779   -1.8317    1.1767 H   0  0  0  0  0  0  0  0  0  0  0  0
   -4.7728   -1.9312   -1.1926 H   0  0  0  0  0  0  0  0  0  0  0  0
   -3.2410   -1.0983   -2.9689 H   0  0  0  0  0  0  0  0  0  0  0  0
   -1.0308   -0.1987   -2.3594 H   0  0  0  0  0  0  0  0  0  0  0  0
   -1.8355    1.8768    0.4873 H   0  0  0  0  0  0  0  0  0  0  0  0
    0.2724   -2.6184   -0.6794 H   0  0  0  0  0  0  0  0  0  0  0  0
  3  4  1  0
  4  5  2  0
  4  6  1  0
  6  7  2  0
  7  8  1  0
  8  9  2  0
  9 10  1  0
 10 11  2  0
 11 12  1  0
 12 13  2  0
 13 14  1  0
 14 15  2  0
 15 16  1  0
 15 17  1  0
 17 18  2  0
 17 19  1  0
 19 20  2  0
 20 21  1  0
 21 22  1  0
 22 23  2  0
 23 24  1  0
 23 25  1  0
 25 26  1  0
 25 27  2  0
 27 28  1  0
 27 29  1  0
 29 30  2  0
 19 31  1  0
 11  6  1  0
 30 12  1  0
 20 13  1  0
 30 22  1  0
  7 32  1  0
  8 33  1  0
  9 34  1  0
 10 35  1  0
 14 36  1  0
 29 37  1  0
M  CHG  4   1   1   2   1   3  -1  26  -1
M  END
$$$$
