OMPs000220
     RDKit          3D

 41 41  0  0  0  0  0  0  0  0999 V2000
   -1.9494    2.5824   -0.8741 C   0  0  0  0  0  0  0  0  0  0  0  0
   -1.3336    2.1567    0.4499 C   0  0  0  0  0  0  0  0  0  0  0  0
   -1.7595    0.7686    0.8673 C   0  0  0  0  0  0  0  0  0  0  0  0
   -2.8724    0.6584    1.7199 C   0  0  0  0  0  0  0  0  0  0  0  0
   -3.3647   -0.5863    2.1016 C   0  0  0  0  0  0  0  0  0  0  0  0
   -2.7582   -1.7466    1.6318 C   0  0  0  0  0  0  0  0  0  0  0  0
   -1.6405   -1.6798    0.7862 C   0  0  0  0  0  0  0  0  0  0  0  0
   -1.0525   -2.9705    0.2822 C   0  0  0  0  0  0  0  0  0  0  0  0
   -1.1390   -0.4124    0.4007 C   0  0  0  0  0  0  0  0  0  0  0  0
   -0.0036   -0.3376   -0.4701 N   0  0  0  0  0  0  0  0  0  0  0  0
    1.3487   -0.2258    0.1582 C   0  0  0  0  0  0  0  0  0  0  0  0
    1.3780   -0.3085    1.6963 C   0  0  0  0  0  0  0  0  0  0  0  0
    2.0988    1.0572   -0.2884 C   0  0  0  0  0  0  0  0  0  0  0  0
    3.3119    0.7451   -0.9834 O   0  0  0  0  0  0  0  0  0  0  0  0
    4.4008    0.4595   -0.1157 C   0  0  0  0  0  0  0  0  0  0  0  0
   -0.2349   -0.6427   -1.8225 C   0  0  0  0  0  0  0  0  0  0  0  0
   -1.3732   -0.8232   -2.2747 O   0  0  0  0  0  0  0  0  0  0  0  0
    0.9432   -0.7530   -2.7744 C   0  0  0  0  0  0  0  0  0  0  0  0
    1.0153    0.7061   -3.7838 Cl  0  0  0  0  0  0  0  0  0  0  0  0
   -1.6457    3.6052   -1.1189 H   0  0  0  0  0  0  0  0  0  0  0  0
   -1.6312    1.9339   -1.6951 H   0  0  0  0  0  0  0  0  0  0  0  0
   -3.0434    2.5554   -0.8296 H   0  0  0  0  0  0  0  0  0  0  0  0
   -0.2455    2.2276    0.4024 H   0  0  0  0  0  0  0  0  0  0  0  0
   -1.6269    2.8765    1.2251 H   0  0  0  0  0  0  0  0  0  0  0  0
   -3.3780    1.5530    2.0783 H   0  0  0  0  0  0  0  0  0  0  0  0
   -4.2338   -0.6515    2.7511 H   0  0  0  0  0  0  0  0  0  0  0  0
   -3.1703   -2.7105    1.9226 H   0  0  0  0  0  0  0  0  0  0  0  0
   -1.4225   -3.1865   -0.7245 H   0  0  0  0  0  0  0  0  0  0  0  0
   -1.3262   -3.8086    0.9327 H   0  0  0  0  0  0  0  0  0  0  0  0
    0.0407   -2.9333    0.2672 H   0  0  0  0  0  0  0  0  0  0  0  0
    1.9023   -1.1047   -0.1944 H   0  0  0  0  0  0  0  0  0  0  0  0
    0.9419   -1.2455    2.0561 H   0  0  0  0  0  0  0  0  0  0  0  0
    2.4089   -0.2763    2.0647 H   0  0  0  0  0  0  0  0  0  0  0  0
    0.8403    0.5237    2.1618 H   0  0  0  0  0  0  0  0  0  0  0  0
    2.3147    1.7313    0.5495 H   0  0  0  0  0  0  0  0  0  0  0  0
    1.4895    1.6326   -0.9915 H   0  0  0  0  0  0  0  0  0  0  0  0
    4.2088   -0.4487    0.4615 H   0  0  0  0  0  0  0  0  0  0  0  0
    5.2912    0.2948   -0.7284 H   0  0  0  0  0  0  0  0  0  0  0  0
    4.5919    1.3025    0.5549 H   0  0  0  0  0  0  0  0  0  0  0  0
    0.7742   -1.6125   -3.4311 H   0  0  0  0  0  0  0  0  0  0  0  0
    1.9040   -0.9061   -2.2909 H   0  0  0  0  0  0  0  0  0  0  0  0
  1  2  1  0
  2  3  1  0
  3  4  2  0
  4  5  1  0
  5  6  2  0
  6  7  1  0
  7  8  1  0
  7  9  2  0
  9 10  1  0
 10 11  1  0
 11 12  1  0
 11 13  1  0
 13 14  1  0
 14 15  1  0
 10 16  1  0
 16 17  2  0
 16 18  1  0
 18 19  1  0
  9  3  1  0
  1 20  1  0
  1 21  1  0
  1 22  1  0
  2 23  1  0
  2 24  1  0
  4 25  1  0
  5 26  1  0
  6 27  1  0
  8 28  1  0
  8 29  1  0
  8 30  1  0
 11 31  1  0
 12 32  1  0
 12 33  1  0
 12 34  1  0
 13 35  1  0
 13 36  1  0
 15 37  1  0
 15 38  1  0
 15 39  1  0
 18 40  1  0
 18 41  1  0
M  END
$$$$
