OMPs000059
     RDKit          3D

  5  4  0  0  0  0  0  0  0  0999 V2000
    1.3716   -0.9949    0.5509 Cl  0  0  0  0  0  0  0  0  0  0  0  0
    0.0000    0.0000   -0.0000 C   0  0  0  0  0  0  0  0  0  0  0  0
    0.6106    1.3841   -0.9413 Cl  0  0  0  0  0  0  0  0  0  0  0  0
   -1.0757   -0.9856   -1.0228 Cl  0  0  0  0  0  0  0  0  0  0  0  0
   -0.9064    0.5964    1.4132 Cl  0  0  0  0  0  0  0  0  0  0  0  0
  1  2  1  0
  2  3  1  0
  2  4  1  0
  2  5  1  0
M  END
$$$$
