OMPs000010
     RDKit          3D

 41 43  0  0  0  0  0  0  0  0999 V2000
    2.1392   -1.6076   -2.3831 C   0  0  0  0  0  0  0  0  0  0  0  0
    2.1960   -0.1100   -2.1173 C   0  0  0  0  0  0  0  0  0  0  0  0
    2.3889    0.1675   -0.6825 N   0  0  0  0  0  0  0  0  0  0  0  0
    3.6668    0.3214   -0.1582 C   0  0  0  0  0  0  0  0  0  0  0  0
    3.9946    0.5710    1.1195 C   0  0  0  0  0  0  0  0  0  0  0  0
    5.4032    0.6971    1.5401 C   0  0  0  0  0  0  0  0  0  0  0  0
    6.2688    0.7435    0.5049 O   0  0  0  0  0  0  0  0  0  0  0  0
    5.8355    0.7560    2.6761 O   0  0  0  0  0  0  0  0  0  0  0  0
    2.8682    0.6963    2.0750 C   0  0  0  0  0  0  0  0  0  0  0  0
    3.0338    0.9756    3.2573 O   0  0  0  0  0  0  0  0  0  0  0  0
    1.4921    0.4800    1.5593 C   0  0  0  0  0  0  0  0  0  0  0  0
    0.4260    0.5374    2.4599 C   0  0  0  0  0  0  0  0  0  0  0  0
   -0.8726    0.3358    2.0077 C   0  0  0  0  0  0  0  0  0  0  0  0
   -1.8531    0.4236    2.9205 F   0  0  0  0  0  0  0  0  0  0  0  0
   -1.1637    0.0795    0.6563 C   0  0  0  0  0  0  0  0  0  0  0  0
   -0.0542    0.0198   -0.2193 C   0  0  0  0  0  0  0  0  0  0  0  0
    1.2806    0.2199    0.1930 C   0  0  0  0  0  0  0  0  0  0  0  0
   -2.4512   -0.1453    0.1677 N   0  0  0  0  0  0  0  0  0  0  0  0
   -3.5767   -0.3906    1.0883 C   0  0  0  0  0  0  0  0  0  0  0  0
   -4.7738   -0.9963    0.3191 C   0  0  0  0  0  0  0  0  0  0  0  0
   -5.2813   -0.1932   -0.8117 N   0  0  0  0  0  0  0  0  0  0  0  0
   -4.2887    0.8016   -1.2486 C   0  0  0  0  0  0  0  0  0  0  0  0
   -2.8141    0.3416   -1.1778 C   0  0  0  0  0  0  0  0  0  0  0  0
    1.3023   -2.0809   -1.8607 H   0  0  0  0  0  0  0  0  0  0  0  0
    2.0207   -1.7968   -3.4545 H   0  0  0  0  0  0  0  0  0  0  0  0
    3.0594   -2.1000   -2.0513 H   0  0  0  0  0  0  0  0  0  0  0  0
    3.0341    0.3109   -2.6887 H   0  0  0  0  0  0  0  0  0  0  0  0
    1.3100    0.3962   -2.5162 H   0  0  0  0  0  0  0  0  0  0  0  0
    4.4434    0.2127   -0.9128 H   0  0  0  0  0  0  0  0  0  0  0  0
    7.1363    0.8345    0.9547 H   0  0  0  0  0  0  0  0  0  0  0  0
    0.5923    0.7398    3.5145 H   0  0  0  0  0  0  0  0  0  0  0  0
   -0.2587   -0.2292   -1.2548 H   0  0  0  0  0  0  0  0  0  0  0  0
   -3.8815    0.5445    1.5740 H   0  0  0  0  0  0  0  0  0  0  0  0
   -3.2878   -1.1110    1.8628 H   0  0  0  0  0  0  0  0  0  0  0  0
   -4.4688   -1.9757   -0.0719 H   0  0  0  0  0  0  0  0  0  0  0  0
   -5.6011   -1.1765    1.0139 H   0  0  0  0  0  0  0  0  0  0  0  0
   -5.4898   -0.8278   -1.5818 H   0  0  0  0  0  0  0  0  0  0  0  0
   -4.5250    1.1085   -2.2738 H   0  0  0  0  0  0  0  0  0  0  0  0
   -4.4113    1.6968   -0.6259 H   0  0  0  0  0  0  0  0  0  0  0  0
   -2.6484   -0.4653   -1.9017 H   0  0  0  0  0  0  0  0  0  0  0  0
   -2.1901    1.1947   -1.4722 H   0  0  0  0  0  0  0  0  0  0  0  0
  1  2  1  0
  2  3  1  0
  3  4  1  0
  4  5  2  0
  5  6  1  0
  6  7  1  0
  6  8  2  0
  5  9  1  0
  9 10  2  0
  9 11  1  0
 11 12  2  0
 12 13  1  0
 13 14  1  0
 13 15  2  0
 15 16  1  0
 16 17  2  0
 15 18  1  0
 18 19  1  0
 19 20  1  0
 20 21  1  0
 21 22  1  0
 22 23  1  0
 17  3  1  0
 17 11  1  0
 23 18  1  0
  1 24  1  0
  1 25  1  0
  1 26  1  0
  2 27  1  0
  2 28  1  0
  4 29  1  0
  7 30  1  0
 12 31  1  0
 16 32  1  0
 19 33  1  0
 19 34  1  0
 20 35  1  0
 20 36  1  0
 21 37  1  0
 22 38  1  0
 22 39  1  0
 23 40  1  0
 23 41  1  0
M  END
$$$$
