OMPs000006
     RDKit          3D

 39 40  0  0  0  0  0  0  0  0999 V2000
   -2.5454   -0.9135    3.7488 C   0  0  0  0  0  0  0  0  0  0  0  0
   -2.9699   -0.3180    2.5312 O   0  0  0  0  0  0  0  0  0  0  0  0
   -2.1539   -0.4605    1.4385 C   0  0  0  0  0  0  0  0  0  0  0  0
   -0.8579   -0.9814    1.4733 C   0  0  0  0  0  0  0  0  0  0  0  0
   -0.0973   -1.0880    0.2971 C   0  0  0  0  0  0  0  0  0  0  0  0
    1.3082   -1.6488    0.3383 C   0  0  0  0  0  0  0  0  0  0  0  0
    2.3744   -0.6182    0.1103 C   0  0  0  0  0  0  0  0  0  0  0  0
    2.7111    0.2838    1.1000 C   0  0  0  0  0  0  0  0  0  0  0  0
    3.6356    1.2495    0.9569 N   0  0  0  0  0  0  0  0  0  0  0  0
    4.2370    1.3140   -0.2301 C   0  0  0  0  0  0  0  0  0  0  0  0
    5.1704    2.3132   -0.4153 N   0  0  0  0  0  0  0  0  0  0  0  0
    3.9737    0.5130   -1.2651 N   0  0  0  0  0  0  0  0  0  0  0  0
    3.0592   -0.4490   -1.0783 C   0  0  0  0  0  0  0  0  0  0  0  0
    2.8237   -1.2592   -2.1911 N   0  0  0  0  0  0  0  0  0  0  0  0
   -0.6498   -0.6654   -0.9247 C   0  0  0  0  0  0  0  0  0  0  0  0
   -1.9404   -0.1355   -0.9814 C   0  0  0  0  0  0  0  0  0  0  0  0
   -2.5595    0.3007   -2.1243 O   0  0  0  0  0  0  0  0  0  0  0  0
   -1.8404    0.1822   -3.3441 C   0  0  0  0  0  0  0  0  0  0  0  0
   -2.6776   -0.0239    0.2094 C   0  0  0  0  0  0  0  0  0  0  0  0
   -3.9693    0.4562    0.1622 O   0  0  0  0  0  0  0  0  0  0  0  0
   -3.9623    1.8724    0.3319 C   0  0  0  0  0  0  0  0  0  0  0  0
   -3.3485   -0.7866    4.4812 H   0  0  0  0  0  0  0  0  0  0  0  0
   -2.3722   -1.9881    3.6279 H   0  0  0  0  0  0  0  0  0  0  0  0
   -1.6557   -0.4107    4.1413 H   0  0  0  0  0  0  0  0  0  0  0  0
   -0.4169   -1.3109    2.4085 H   0  0  0  0  0  0  0  0  0  0  0  0
    1.4916   -2.1306    1.3084 H   0  0  0  0  0  0  0  0  0  0  0  0
    1.3783   -2.4681   -0.3875 H   0  0  0  0  0  0  0  0  0  0  0  0
    2.2274    0.2629    2.0729 H   0  0  0  0  0  0  0  0  0  0  0  0
    5.2212    2.5497   -1.3959 H   0  0  0  0  0  0  0  0  0  0  0  0
    4.9848    3.0664    0.2323 H   0  0  0  0  0  0  0  0  0  0  0  0
    3.4668   -0.9445   -2.9160 H   0  0  0  0  0  0  0  0  0  0  0  0
    2.9796   -2.2382   -1.9778 H   0  0  0  0  0  0  0  0  0  0  0  0
   -0.0441   -0.7597   -1.8219 H   0  0  0  0  0  0  0  0  0  0  0  0
   -0.9312    0.7921   -3.3272 H   0  0  0  0  0  0  0  0  0  0  0  0
   -1.6122   -0.8649   -3.5689 H   0  0  0  0  0  0  0  0  0  0  0  0
   -2.4796    0.5622   -4.1469 H   0  0  0  0  0  0  0  0  0  0  0  0
   -3.4152    2.3702   -0.4761 H   0  0  0  0  0  0  0  0  0  0  0  0
   -3.5437    2.1569    1.3036 H   0  0  0  0  0  0  0  0  0  0  0  0
   -4.9998    2.2181    0.2983 H   0  0  0  0  0  0  0  0  0  0  0  0
  1  2  1  0
  2  3  1  0
  3  4  2  0
  4  5  1  0
  5  6  1  0
  6  7  1  0
  7  8  2  0
  8  9  1  0
  9 10  2  0
 10 11  1  0
 10 12  1  0
 12 13  2  0
 13 14  1  0
  5 15  2  0
 15 16  1  0
 16 17  1  0
 17 18  1  0
 16 19  2  0
 19 20  1  0
 20 21  1  0
 19  3  1  0
 13  7  1  0
  1 22  1  0
  1 23  1  0
  1 24  1  0
  4 25  1  0
  6 26  1  0
  6 27  1  0
  8 28  1  0
 11 29  1  0
 11 30  1  0
 14 31  1  0
 14 32  1  0
 15 33  1  0
 18 34  1  0
 18 35  1  0
 18 36  1  0
 21 37  1  0
 21 38  1  0
 21 39  1  0
M  END
$$$$
