OMPs000026
     RDKit          3D

 14 14  0  0  0  0  0  0  0  0999 V2000
    0.0723    1.3955    0.1125 C   0  0  0  0  0  0  0  0  0  0  0  0
    1.2890    0.4832    0.2639 C   0  0  0  0  0  0  0  0  0  0  0  0
    0.8951   -0.8037    0.7631 O   0  0  0  0  0  0  0  0  0  0  0  0
   -0.0723   -1.3955   -0.1168 C   0  0  0  0  0  0  0  0  0  0  0  0
   -1.2890   -0.4832   -0.2682 C   0  0  0  0  0  0  0  0  0  0  0  0
   -0.8951    0.8037   -0.7674 O   0  0  0  0  0  0  0  0  0  0  0  0
   -0.4048    1.5758    1.0828 H   0  0  0  0  0  0  0  0  0  0  0  0
    0.3686    2.3603   -0.3096 H   0  0  0  0  0  0  0  0  0  0  0  0
    1.7949    0.3428   -0.6983 H   0  0  0  0  0  0  0  0  0  0  0  0
    2.0050    0.9155    0.9691 H   0  0  0  0  0  0  0  0  0  0  0  0
   -0.3686   -2.3603    0.3053 H   0  0  0  0  0  0  0  0  0  0  0  0
    0.4048   -1.5758   -1.0870 H   0  0  0  0  0  0  0  0  0  0  0  0
   -2.0050   -0.9155   -0.9733 H   0  0  0  0  0  0  0  0  0  0  0  0
   -1.7950   -0.3428    0.6940 H   0  0  0  0  0  0  0  0  0  0  0  0
  1  2  1  0
  2  3  1  0
  3  4  1  0
  4  5  1  0
  5  6  1  0
  6  1  1  0
  1  7  1  0
  1  8  1  0
  2  9  1  0
  2 10  1  0
  4 11  1  0
  4 12  1  0
  5 13  1  0
  5 14  1  0
M  END
$$$$
