OMPs000189
     RDKit          3D

 17 17  0  0  0  0  0  0  0  0999 V2000
    2.9667    0.7590   -0.5747 O   0  0  0  0  0  0  0  0  0  0  0  0
    2.2933   -0.3690   -0.2931 C   0  0  0  0  0  0  0  0  0  0  0  0
    2.8381   -1.4574   -0.3207 O   0  0  0  0  0  0  0  0  0  0  0  0
    0.8701   -0.1274    0.0394 C   0  0  0  0  0  0  0  0  0  0  0  0
    0.0692   -1.2352    0.3509 C   0  0  0  0  0  0  0  0  0  0  0  0
   -1.2721   -1.0412    0.6676 C   0  0  0  0  0  0  0  0  0  0  0  0
   -2.0868   -2.0906    0.9768 O   0  0  0  0  0  0  0  0  0  0  0  0
   -1.8292    0.2332    0.6797 C   0  0  0  0  0  0  0  0  0  0  0  0
   -1.0256    1.3254    0.3691 C   0  0  0  0  0  0  0  0  0  0  0  0
   -1.5252    2.5945    0.3673 O   0  0  0  0  0  0  0  0  0  0  0  0
    0.3182    1.1588    0.0490 C   0  0  0  0  0  0  0  0  0  0  0  0
    3.8765    0.4534   -0.7721 H   0  0  0  0  0  0  0  0  0  0  0  0
    0.5020   -2.2320    0.3422 H   0  0  0  0  0  0  0  0  0  0  0  0
   -1.5724   -2.9145    0.9303 H   0  0  0  0  0  0  0  0  0  0  0  0
   -2.8780    0.3528    0.9306 H   0  0  0  0  0  0  0  0  0  0  0  0
   -2.4666    2.5595    0.6067 H   0  0  0  0  0  0  0  0  0  0  0  0
    0.9215    2.0306   -0.1894 H   0  0  0  0  0  0  0  0  0  0  0  0
  1  2  1  0
  2  3  2  0
  2  4  1  0
  4  5  2  0
  5  6  1  0
  6  7  1  0
  6  8  2  0
  8  9  1  0
  9 10  1  0
  9 11  2  0
 11  4  1  0
  1 12  1  0
  5 13  1  0
  7 14  1  0
  8 15  1  0
 10 16  1  0
 11 17  1  0
M  END
$$$$
