OMPs000197
     RDKit          3D

  8  7  0  0  0  0  0  0  0  0999 V2000
    1.3053    0.4866   -0.7864 O   0  0  0  0  0  0  0  0  0  0  0  0
    0.6020   -0.2497    0.1124 C   0  0  0  0  0  0  0  0  0  0  0  0
    1.2179   -1.0643    0.7877 O   0  0  0  0  0  0  0  0  0  0  0  0
   -0.8951    0.0500    0.1548 C   0  0  0  0  0  0  0  0  0  0  0  0
   -1.7116   -0.9665    1.3604 Cl  0  0  0  0  0  0  0  0  0  0  0  0
   -1.6343   -0.3513   -1.6034 Br  0  0  0  0  0  0  0  0  0  0  0  0
   -1.1157    1.9189    0.6620 Br  0  0  0  0  0  0  0  0  0  0  0  0
    2.2316    0.1763   -0.6875 H   0  0  0  0  0  0  0  0  0  0  0  0
  1  2  1  0
  2  3  2  0
  2  4  1  0
  4  5  1  0
  4  6  1  0
  4  7  1  0
  1  8  1  0
M  END
$$$$
