OMPs000105
     RDKit          3D

 31 32  0  0  0  0  0  0  0  0999 V2000
   -5.2062    0.9783   -1.0353 C   0  0  0  0  0  0  0  0  0  0  0  0
   -4.6389   -0.2109   -0.5009 O   0  0  0  0  0  0  0  0  0  0  0  0
   -3.2772   -0.2458   -0.3745 C   0  0  0  0  0  0  0  0  0  0  0  0
   -2.7738   -1.4311    0.1603 C   0  0  0  0  0  0  0  0  0  0  0  0
   -1.4002   -1.6021    0.3447 C   0  0  0  0  0  0  0  0  0  0  0  0
   -0.5018   -0.5848   -0.0057 C   0  0  0  0  0  0  0  0  0  0  0  0
    0.8842   -0.7384    0.1727 C   0  0  0  0  0  0  0  0  0  0  0  0
    1.7851    0.2792   -0.1819 C   0  0  0  0  0  0  0  0  0  0  0  0
    1.2736    1.4698   -0.7119 C   0  0  0  0  0  0  0  0  0  0  0  0
   -0.1020    1.6359   -0.8940 C   0  0  0  0  0  0  0  0  0  0  0  0
   -1.0035    0.6183   -0.5476 C   0  0  0  0  0  0  0  0  0  0  0  0
   -2.3914    0.7744   -0.7264 C   0  0  0  0  0  0  0  0  0  0  0  0
    3.2821    0.1188    0.0167 C   0  0  0  0  0  0  0  0  0  0  0  0
    3.8470   -1.1024   -0.7139 C   0  0  0  0  0  0  0  0  0  0  0  0
    3.6566    0.1384    1.4878 C   0  0  0  0  0  0  0  0  0  0  0  0
    3.6704   -1.0738    2.0776 O   0  0  0  0  0  0  0  0  0  0  0  0
    3.8928    1.1378    2.1504 O   0  0  0  0  0  0  0  0  0  0  0  0
   -4.8623    1.1539   -2.0600 H   0  0  0  0  0  0  0  0  0  0  0  0
   -6.2919    0.8456   -1.0672 H   0  0  0  0  0  0  0  0  0  0  0  0
   -4.9951    1.8398   -0.3932 H   0  0  0  0  0  0  0  0  0  0  0  0
   -3.4572   -2.2302    0.4371 H   0  0  0  0  0  0  0  0  0  0  0  0
   -1.0395   -2.5382    0.7645 H   0  0  0  0  0  0  0  0  0  0  0  0
    1.2635   -1.6656    0.6002 H   0  0  0  0  0  0  0  0  0  0  0  0
    1.9405    2.2848   -0.9864 H   0  0  0  0  0  0  0  0  0  0  0  0
   -0.4647    2.5741   -1.3084 H   0  0  0  0  0  0  0  0  0  0  0  0
   -2.7563    1.7072   -1.1438 H   0  0  0  0  0  0  0  0  0  0  0  0
    3.7934    0.9873   -0.4220 H   0  0  0  0  0  0  0  0  0  0  0  0
    4.9327   -1.1627   -0.5787 H   0  0  0  0  0  0  0  0  0  0  0  0
    3.4221   -2.0435   -0.3488 H   0  0  0  0  0  0  0  0  0  0  0  0
    3.6421   -1.0417   -1.7885 H   0  0  0  0  0  0  0  0  0  0  0  0
    3.8760   -0.8724    3.0149 H   0  0  0  0  0  0  0  0  0  0  0  0
  1  2  1  0
  2  3  1  0
  3  4  2  0
  4  5  1  0
  5  6  2  0
  6  7  1  0
  7  8  2  0
  8  9  1  0
  9 10  2  0
 10 11  1  0
 11 12  2  0
  8 13  1  0
 13 14  1  0
 13 15  1  0
 15 16  1  0
 15 17  2  0
 12  3  1  0
 11  6  1  0
  1 18  1  0
  1 19  1  0
  1 20  1  0
  4 21  1  0
  5 22  1  0
  7 23  1  0
  9 24  1  0
 10 25  1  0
 12 26  1  0
 13 27  1  0
 14 28  1  0
 14 29  1  0
 14 30  1  0
 16 31  1  0
M  END
$$$$
