OMPs000045
     RDKit          3D

 18 18  0  0  0  0  0  0  0  0999 V2000
    1.7610    1.1245   -1.7153 Cl  0  0  0  0  0  0  0  0  0  0  0  0
    1.4026    0.5702   -0.0536 C   0  0  0  0  0  0  0  0  0  0  0  0
    1.1400   -0.9488    0.0440 C   0  0  0  0  0  0  0  0  0  0  0  0
    2.4948   -1.9310   -0.5968 Cl  0  0  0  0  0  0  0  0  0  0  0  0
   -0.2379   -1.4203   -0.4708 C   0  0  0  0  0  0  0  0  0  0  0  0
   -0.3590   -1.4478   -2.2545 Cl  0  0  0  0  0  0  0  0  0  0  0  0
   -1.3472   -0.5864    0.2074 C   0  0  0  0  0  0  0  0  0  0  0  0
   -2.9957   -1.1310   -0.2361 Cl  0  0  0  0  0  0  0  0  0  0  0  0
   -1.1776    0.9462    0.1159 C   0  0  0  0  0  0  0  0  0  0  0  0
   -1.5734    1.6104   -1.4963 Cl  0  0  0  0  0  0  0  0  0  0  0  0
    0.2342    1.3324    0.6096 C   0  0  0  0  0  0  0  0  0  0  0  0
    0.4952    3.1047    0.6517 Cl  0  0  0  0  0  0  0  0  0  0  0  0
    2.3164    0.7930    0.5114 H   0  0  0  0  0  0  0  0  0  0  0  0
    1.1547   -1.1857    1.1165 H   0  0  0  0  0  0  0  0  0  0  0  0
   -0.3709   -2.4676   -0.1720 H   0  0  0  0  0  0  0  0  0  0  0  0
   -1.2911   -0.8293    1.2772 H   0  0  0  0  0  0  0  0  0  0  0  0
   -1.9101    1.4089    0.7890 H   0  0  0  0  0  0  0  0  0  0  0  0
    0.2639    1.0575    1.6726 H   0  0  0  0  0  0  0  0  0  0  0  0
  1  2  1  0
  2  3  1  0
  3  4  1  0
  3  5  1  0
  5  6  1  0
  5  7  1  0
  7  8  1  0
  7  9  1  0
  9 10  1  0
  9 11  1  0
 11 12  1  0
 11  2  1  0
  2 13  1  0
  3 14  1  0
  5 15  1  0
  7 16  1  0
  9 17  1  0
 11 18  1  0
M  END
$$$$
