OMPs000005
     RDKit          3D

 19 19  0  0  0  0  0  0  0  0999 V2000
    3.6956   -0.1422    0.0474 C   0  0  0  0  0  0  0  0  0  0  0  0
    2.3023   -0.4375    0.1535 O   0  0  0  0  0  0  0  0  0  0  0  0
    1.4935    0.6145   -0.1272 C   0  0  0  0  0  0  0  0  0  0  0  0
    1.8626    1.7338   -0.4467 O   0  0  0  0  0  0  0  0  0  0  0  0
    0.0617    0.2291    0.0048 C   0  0  0  0  0  0  0  0  0  0  0  0
   -0.3399   -1.0626    0.3731 C   0  0  0  0  0  0  0  0  0  0  0  0
   -1.6987   -1.3689    0.4818 C   0  0  0  0  0  0  0  0  0  0  0  0
   -2.6512   -0.3892    0.2237 C   0  0  0  0  0  0  0  0  0  0  0  0
   -3.9639   -0.7355    0.3428 O   0  0  0  0  0  0  0  0  0  0  0  0
   -2.2714    0.8977   -0.1429 C   0  0  0  0  0  0  0  0  0  0  0  0
   -0.9126    1.2061   -0.2521 C   0  0  0  0  0  0  0  0  0  0  0  0
    3.9772    0.6399    0.7594 H   0  0  0  0  0  0  0  0  0  0  0  0
    3.9479    0.1544   -0.9756 H   0  0  0  0  0  0  0  0  0  0  0  0
    4.2538   -1.0502    0.2920 H   0  0  0  0  0  0  0  0  0  0  0  0
    0.3909   -1.8406    0.5785 H   0  0  0  0  0  0  0  0  0  0  0  0
   -2.0128   -2.3694    0.7671 H   0  0  0  0  0  0  0  0  0  0  0  0
   -4.5122    0.0392    0.1352 H   0  0  0  0  0  0  0  0  0  0  0  0
   -3.0086    1.6683   -0.3461 H   0  0  0  0  0  0  0  0  0  0  0  0
   -0.6144    2.2131   -0.5390 H   0  0  0  0  0  0  0  0  0  0  0  0
  1  2  1  0
  2  3  1  0
  3  4  2  0
  3  5  1  0
  5  6  2  0
  6  7  1  0
  7  8  2  0
  8  9  1  0
  8 10  1  0
 10 11  2  0
 11  5  1  0
  1 12  1  0
  1 13  1  0
  1 14  1  0
  6 15  1  0
  7 16  1  0
  9 17  1  0
 10 18  1  0
 11 19  1  0
M  END
$$$$
