OMPs000038
     RDKit          3D

 12 12  0  0  0  0  0  0  0  0999 V2000
    1.3781   -0.2235   -0.0135 C   0  0  0  0  0  0  0  0  0  0  0  0
    0.9380    1.0427    0.0271 C   0  0  0  0  0  0  0  0  0  0  0  0
   -0.5240    1.3120    0.0424 C   0  0  0  0  0  0  0  0  0  0  0  0
   -0.9602    2.4562    0.0793 O   0  0  0  0  0  0  0  0  0  0  0  0
   -1.3363    0.2025    0.0126 N   0  0  0  0  0  0  0  0  0  0  0  0
   -0.8704   -1.0871   -0.0288 C   0  0  0  0  0  0  0  0  0  0  0  0
    0.4466   -1.3277   -0.0425 C   0  0  0  0  0  0  0  0  0  0  0  0
    2.4401   -0.4448   -0.0254 H   0  0  0  0  0  0  0  0  0  0  0  0
    1.5962    1.9004    0.0500 H   0  0  0  0  0  0  0  0  0  0  0  0
   -2.3317    0.3869    0.0231 H   0  0  0  0  0  0  0  0  0  0  0  0
   -1.6128   -1.8780   -0.0492 H   0  0  0  0  0  0  0  0  0  0  0  0
    0.8363   -2.3396   -0.0751 H   0  0  0  0  0  0  0  0  0  0  0  0
  1  2  2  0
  2  3  1  0
  3  4  2  0
  3  5  1  0
  5  6  1  0
  6  7  2  0
  7  1  1  0
  1  8  1  0
  2  9  1  0
  5 10  1  0
  6 11  1  0
  7 12  1  0
M  END
$$$$
