OMPs000208
     RDKit          3D

 22 22  0  0  0  0  0  0  0  0999 V2000
   -1.8048   -1.6163    1.0077 C   0  0  0  0  0  0  0  0  0  0  0  0
   -1.4278   -0.3130    0.3571 C   0  0  0  0  0  0  0  0  0  0  0  0
   -2.3211    0.7694    0.4038 C   0  0  0  0  0  0  0  0  0  0  0  0
   -1.9839    1.9820   -0.1913 C   0  0  0  0  0  0  0  0  0  0  0  0
   -3.0842    3.3028   -0.1289 Cl  0  0  0  0  0  0  0  0  0  0  0  0
   -0.7610    2.1301   -0.8372 C   0  0  0  0  0  0  0  0  0  0  0  0
    0.1362    1.0584   -0.8900 C   0  0  0  0  0  0  0  0  0  0  0  0
   -0.1870   -0.1651   -0.2935 C   0  0  0  0  0  0  0  0  0  0  0  0
    0.6137   -1.2763   -0.2862 O   0  0  0  0  0  0  0  0  0  0  0  0
    1.9236   -1.1769   -0.8205 C   0  0  0  0  0  0  0  0  0  0  0  0
    2.9139   -0.3932    0.0239 C   0  0  0  0  0  0  0  0  0  0  0  0
    2.9108   -0.7419    1.3258 O   0  0  0  0  0  0  0  0  0  0  0  0
    3.6847    0.4605   -0.3883 O   0  0  0  0  0  0  0  0  0  0  0  0
   -1.0900   -1.8654    1.7987 H   0  0  0  0  0  0  0  0  0  0  0  0
   -2.7994   -1.5656    1.4631 H   0  0  0  0  0  0  0  0  0  0  0  0
   -1.8215   -2.4201    0.2646 H   0  0  0  0  0  0  0  0  0  0  0  0
   -3.2801    0.6651    0.9055 H   0  0  0  0  0  0  0  0  0  0  0  0
   -0.4968    3.0757   -1.3037 H   0  0  0  0  0  0  0  0  0  0  0  0
    1.0750    1.2222   -1.4093 H   0  0  0  0  0  0  0  0  0  0  0  0
    2.3205   -2.1957   -0.8998 H   0  0  0  0  0  0  0  0  0  0  0  0
    1.9056   -0.7836   -1.8435 H   0  0  0  0  0  0  0  0  0  0  0  0
    3.5738   -0.1532    1.7420 H   0  0  0  0  0  0  0  0  0  0  0  0
  1  2  1  0
  2  3  2  0
  3  4  1  0
  4  5  1  0
  4  6  2  0
  6  7  1  0
  7  8  2  0
  8  9  1  0
  9 10  1  0
 10 11  1  0
 11 12  1  0
 11 13  2  0
  8  2  1  0
  1 14  1  0
  1 15  1  0
  1 16  1  0
  3 17  1  0
  6 18  1  0
  7 19  1  0
 10 20  1  0
 10 21  1  0
 12 22  1  0
M  END
$$$$
