OMPs000101
     RDKit          3D

 38 39  0  0  0  0  0  0  0  0999 V2000
    3.9408    2.5116    0.3798 C   0  0  0  0  0  0  0  0  0  0  0  0
    3.5957    1.0871   -0.0671 C   0  0  0  0  0  0  0  0  0  0  0  0
    4.7592    0.5053   -0.8728 C   0  0  0  0  0  0  0  0  0  0  0  0
    2.3387    1.1512   -0.8219 N   0  0  0  0  0  0  0  0  0  0  0  0
    1.8186   -0.1376   -1.2960 C   0  0  0  0  0  0  0  0  0  0  0  0
    1.4610   -1.1735   -0.2107 C   0  0  0  0  0  0  0  0  0  0  0  0
    1.0486   -2.3914   -0.8544 O   0  0  0  0  0  0  0  0  0  0  0  0
    0.3442   -0.7054    0.7344 C   0  0  0  0  0  0  0  0  0  0  0  0
   -0.8545   -0.5389   -0.0344 O   0  0  0  0  0  0  0  0  0  0  0  0
   -2.0191   -0.3761    0.6694 C   0  0  0  0  0  0  0  0  0  0  0  0
   -2.0935    0.0018    2.0187 C   0  0  0  0  0  0  0  0  0  0  0  0
   -3.3237    0.1313    2.6666 C   0  0  0  0  0  0  0  0  0  0  0  0
   -4.5239   -0.1022    1.9942 C   0  0  0  0  0  0  0  0  0  0  0  0
   -4.4449   -0.4623    0.6474 C   0  0  0  0  0  0  0  0  0  0  0  0
   -5.4470   -0.7517   -0.2533 N   0  0  0  0  0  0  0  0  0  0  0  0
   -4.9136   -1.0722   -1.4728 C   0  0  0  0  0  0  0  0  0  0  0  0
   -3.5439   -0.9829   -1.3662 C   0  0  0  0  0  0  0  0  0  0  0  0
   -3.2292   -0.6012   -0.0271 C   0  0  0  0  0  0  0  0  0  0  0  0
    3.1402    2.9334    0.9969 H   0  0  0  0  0  0  0  0  0  0  0  0
    4.8577    2.5197    0.9792 H   0  0  0  0  0  0  0  0  0  0  0  0
    4.0966    3.1753   -0.4785 H   0  0  0  0  0  0  0  0  0  0  0  0
    3.4536    0.4928    0.8425 H   0  0  0  0  0  0  0  0  0  0  0  0
    4.5928   -0.5474   -1.1220 H   0  0  0  0  0  0  0  0  0  0  0  0
    5.6895    0.5575   -0.2944 H   0  0  0  0  0  0  0  0  0  0  0  0
    4.9154    1.0578   -1.8060 H   0  0  0  0  0  0  0  0  0  0  0  0
    2.4610    1.7646   -1.6286 H   0  0  0  0  0  0  0  0  0  0  0  0
    0.9171    0.0676   -1.8885 H   0  0  0  0  0  0  0  0  0  0  0  0
    2.5116   -0.5875   -2.0171 H   0  0  0  0  0  0  0  0  0  0  0  0
    2.3515   -1.4233    0.3750 H   0  0  0  0  0  0  0  0  0  0  0  0
    0.1324   -2.2347   -1.1571 H   0  0  0  0  0  0  0  0  0  0  0  0
    0.1859   -1.4857    1.4884 H   0  0  0  0  0  0  0  0  0  0  0  0
    0.6218    0.2368    1.2186 H   0  0  0  0  0  0  0  0  0  0  0  0
   -1.1989    0.2092    2.5952 H   0  0  0  0  0  0  0  0  0  0  0  0
   -3.3489    0.4197    3.7184 H   0  0  0  0  0  0  0  0  0  0  0  0
   -5.4793   -0.0004    2.5045 H   0  0  0  0  0  0  0  0  0  0  0  0
   -6.4328   -0.7431   -0.0356 H   0  0  0  0  0  0  0  0  0  0  0  0
   -5.5491   -1.3342   -2.3072 H   0  0  0  0  0  0  0  0  0  0  0  0
   -2.8316   -1.1710   -2.1582 H   0  0  0  0  0  0  0  0  0  0  0  0
  1  2  1  0
  2  3  1  0
  2  4  1  0
  4  5  1  0
  5  6  1  0
  6  7  1  0
  6  8  1  0
  8  9  1  0
  9 10  1  0
 10 11  2  0
 11 12  1  0
 12 13  2  0
 13 14  1  0
 14 15  1  0
 15 16  1  0
 16 17  2  0
 17 18  1  0
 18 10  1  0
 18 14  2  0
  1 19  1  0
  1 20  1  0
  1 21  1  0
  2 22  1  0
  3 23  1  0
  3 24  1  0
  3 25  1  0
  4 26  1  0
  5 27  1  0
  5 28  1  0
  6 29  1  0
  7 30  1  0
  8 31  1  0
  8 32  1  0
 11 33  1  0
 12 34  1  0
 13 35  1  0
 15 36  1  0
 16 37  1  0
 17 38  1  0
M  END
$$$$
