OMPs000068
     RDKit          3D

 21 21  0  0  0  0  0  0  0  0999 V2000
    2.1337   -0.5199   -1.3121 C   0  0  0  0  0  0  0  0  0  0  0  0
    1.3155    0.5380   -0.6609 C   0  0  0  0  0  0  0  0  0  0  0  0
    1.5320    1.8349   -0.7829 N   0  0  0  0  0  0  0  0  0  0  0  0
    0.5691    2.4544   -0.0349 C   0  0  0  0  0  0  0  0  0  0  0  0
   -0.2494    1.5224    0.5488 C   0  0  0  0  0  0  0  0  0  0  0  0
    0.2275    0.2921    0.1635 N   0  0  0  0  0  0  0  0  0  0  0  0
   -0.2302   -1.0268    0.5797 C   0  0  0  0  0  0  0  0  0  0  0  0
   -1.3908   -1.5498   -0.2633 C   0  0  0  0  0  0  0  0  0  0  0  0
   -0.9054   -2.0466   -1.5071 O   0  0  0  0  0  0  0  0  0  0  0  0
   -1.3703    1.7640    1.3896 N   0  0  0  0  0  0  0  0  0  0  0  0
   -2.1318    0.8185    1.6229 O   0  0  0  0  0  0  0  0  0  0  0  0
   -1.5038    2.9165    1.8153 O   0  0  0  0  0  0  0  0  0  0  0  0
    2.6154   -1.1568   -0.5644 H   0  0  0  0  0  0  0  0  0  0  0  0
    2.9233   -0.0664   -1.9202 H   0  0  0  0  0  0  0  0  0  0  0  0
    1.5228   -1.1406   -1.9721 H   0  0  0  0  0  0  0  0  0  0  0  0
    0.5180    3.5339    0.0372 H   0  0  0  0  0  0  0  0  0  0  0  0
   -0.5043   -0.9619    1.6371 H   0  0  0  0  0  0  0  0  0  0  0  0
    0.6227   -1.7111    0.5236 H   0  0  0  0  0  0  0  0  0  0  0  0
   -1.8758   -2.3826    0.2554 H   0  0  0  0  0  0  0  0  0  0  0  0
   -2.1379   -0.7779   -0.4699 H   0  0  0  0  0  0  0  0  0  0  0  0
   -1.6801   -2.3342   -2.0232 H   0  0  0  0  0  0  0  0  0  0  0  0
  1  2  1  0
  2  3  2  0
  3  4  1  0
  4  5  2  0
  5  6  1  0
  6  7  1  0
  7  8  1  0
  8  9  1  0
  5 10  1  0
 10 11  1  0
 10 12  2  0
  6  2  1  0
  1 13  1  0
  1 14  1  0
  1 15  1  0
  4 16  1  0
  7 17  1  0
  7 18  1  0
  8 19  1  0
  8 20  1  0
  9 21  1  0
M  CHG  2  10   1  11  -1
M  END
$$$$
