OMPs000134
     RDKit          3D

 70 73  0  0  0  0  0  0  0  0999 V2000
    0.0000    0.0000    0.0000 Na  0  0  0  0  0 15  0  0  0  0  0  0
    0.0000    0.0000    0.0000 Na  0  0  0  0  0 15  0  0  0  0  0  0
   -6.0494    2.2950   -0.7932 N   0  0  0  0  0  0  0  0  0  0  0  0
   -7.1379    1.3979   -0.4918 C   0  0  0  0  0  0  0  0  0  0  0  0
   -6.8570    0.0172   -0.3567 C   0  0  0  0  0  0  0  0  0  0  0  0
   -7.8668   -0.8492    0.0525 C   0  0  0  0  0  0  0  0  0  0  0  0
   -9.1362   -0.3494    0.3743 C   0  0  0  0  0  0  0  0  0  0  0  0
   -9.4388    1.0425    0.2989 C   0  0  0  0  0  0  0  0  0  0  0  0
  -10.6873    1.6243    0.6436 C   0  0  0  0  0  0  0  0  0  0  0  0
  -10.9299    2.9950    0.5299 C   0  0  0  0  0  0  0  0  0  0  0  0
   -9.9297    3.8369    0.0762 C   0  0  0  0  0  0  0  0  0  0  0  0
   -8.6870    3.3031   -0.2535 C   0  0  0  0  0  0  0  0  0  0  0  0
   -8.4132    1.9190   -0.1472 C   0  0  0  0  0  0  0  0  0  0  0  0
  -10.3866   -1.5608    0.9213 S   0  0  0  0  0  6  0  0  0  0  0  0
   -9.7680   -2.8597    0.6506 O   0  0  0  0  0  0  0  0  0  0  0  0
  -11.5408   -1.2575    0.0767 O   0  0  0  0  0  0  0  0  0  0  0  0
  -10.5249   -1.2269    2.3376 O   0  0  0  0  0  0  0  0  0  0  0  0
   -5.5645   -0.4464   -0.6992 N   0  0  0  0  0  0  0  0  0  0  0  0
   -4.9969   -0.9545    0.2918 N   0  0  0  0  0  0  0  0  0  0  0  0
   -3.6264   -1.2124    0.0711 C   0  0  0  0  0  0  0  0  0  0  0  0
   -2.8082   -1.3316    1.1978 C   0  0  0  0  0  0  0  0  0  0  0  0
   -1.4237   -1.4856    1.0700 C   0  0  0  0  0  0  0  0  0  0  0  0
   -0.8104   -1.5326   -0.1941 C   0  0  0  0  0  0  0  0  0  0  0  0
   -1.6412   -1.4718   -1.3246 C   0  0  0  0  0  0  0  0  0  0  0  0
   -3.0279   -1.3187   -1.1915 C   0  0  0  0  0  0  0  0  0  0  0  0
    0.6594   -1.5621   -0.3198 C   0  0  0  0  0  0  0  0  0  0  0  0
    1.4461   -2.4663    0.4130 C   0  0  0  0  0  0  0  0  0  0  0  0
    2.8453   -2.4032    0.3744 C   0  0  0  0  0  0  0  0  0  0  0  0
    3.4932   -1.4312   -0.3934 C   0  0  0  0  0  0  0  0  0  0  0  0
    2.7189   -0.5613   -1.1682 C   0  0  0  0  0  0  0  0  0  0  0  0
    1.3226   -0.6229   -1.1279 C   0  0  0  0  0  0  0  0  0  0  0  0
    4.8969   -1.3266   -0.3684 N   0  0  0  0  0  0  0  0  0  0  0  0
    5.2119   -0.2613    0.2119 N   0  0  0  0  0  0  0  0  0  0  0  0
    6.6043   -0.0480    0.1793 C   0  0  0  0  0  0  0  0  0  0  0  0
    7.1505    0.7590   -0.8130 C   0  0  0  0  0  0  0  0  0  0  0  0
    8.5235    1.0454   -0.8158 C   0  0  0  0  0  0  0  0  0  0  0  0
    9.3940    0.5598    0.2017 C   0  0  0  0  0  0  0  0  0  0  0  0
   10.7801    0.8556    0.2905 C   0  0  0  0  0  0  0  0  0  0  0  0
   11.5893    0.3539    1.3093 C   0  0  0  0  0  0  0  0  0  0  0  0
   11.0374   -0.4594    2.2857 C   0  0  0  0  0  0  0  0  0  0  0  0
    9.6777   -0.7651    2.2353 C   0  0  0  0  0  0  0  0  0  0  0  0
    8.8343   -0.2728    1.2110 C   0  0  0  0  0  0  0  0  0  0  0  0
    7.4439   -0.5782    1.1876 C   0  0  0  0  0  0  0  0  0  0  0  0
    6.8839   -1.4859    2.1499 N   0  0  0  0  0  0  0  0  0  0  0  0
    9.1487    2.0531   -2.2038 S   0  0  0  0  0  6  0  0  0  0  0  0
    8.0143    2.1177   -3.1197 O   0  0  0  0  0  0  0  0  0  0  0  0
   10.2754    1.2684   -2.6991 O   0  0  0  0  0  0  0  0  0  0  0  0
    9.4852    3.3120   -1.5465 O   0  0  0  0  0  0  0  0  0  0  0  0
   -5.7176    2.6867    0.0865 H   0  0  0  0  0  0  0  0  0  0  0  0
   -5.2949    1.7332   -1.1970 H   0  0  0  0  0  0  0  0  0  0  0  0
   -7.6601   -1.9132    0.1303 H   0  0  0  0  0  0  0  0  0  0  0  0
  -11.5027    0.9994    1.0041 H   0  0  0  0  0  0  0  0  0  0  0  0
  -11.9072    3.3831    0.7960 H   0  0  0  0  0  0  0  0  0  0  0  0
  -10.1097    4.9019   -0.0312 H   0  0  0  0  0  0  0  0  0  0  0  0
   -7.9171    3.9794   -0.6167 H   0  0  0  0  0  0  0  0  0  0  0  0
   -3.2492   -1.2591    2.1898 H   0  0  0  0  0  0  0  0  0  0  0  0
   -0.8179   -1.5177    1.9725 H   0  0  0  0  0  0  0  0  0  0  0  0
   -1.2143   -1.5240   -2.3232 H   0  0  0  0  0  0  0  0  0  0  0  0
   -3.6369   -1.2513   -2.0867 H   0  0  0  0  0  0  0  0  0  0  0  0
    0.9739   -3.2187    1.0418 H   0  0  0  0  0  0  0  0  0  0  0  0
    3.4305   -3.0972    0.9684 H   0  0  0  0  0  0  0  0  0  0  0  0
    3.2083    0.1984   -1.7727 H   0  0  0  0  0  0  0  0  0  0  0  0
    0.7555    0.1061   -1.7049 H   0  0  0  0  0  0  0  0  0  0  0  0
    6.5020    1.1696   -1.5839 H   0  0  0  0  0  0  0  0  0  0  0  0
   11.2490    1.5066   -0.4479 H   0  0  0  0  0  0  0  0  0  0  0  0
   12.6444    0.6134    1.3294 H   0  0  0  0  0  0  0  0  0  0  0  0
   11.6518   -0.8397    3.0942 H   0  0  0  0  0  0  0  0  0  0  0  0
    9.2633   -1.3841    3.0280 H   0  0  0  0  0  0  0  0  0  0  0  0
    7.2936   -2.4065    2.0022 H   0  0  0  0  0  0  0  0  0  0  0  0
    5.8714   -1.5207    2.0125 H   0  0  0  0  0  0  0  0  0  0  0  0
  3  4  1  0
  4  5  2  0
  5  6  1  0
  6  7  2  0
  7  8  1  0
  8  9  2  0
  9 10  1  0
 10 11  2  0
 11 12  1  0
 12 13  2  0
  7 14  1  0
 14 15  1  0
 14 16  2  0
 14 17  2  0
  5 18  1  0
 18 19  2  3
 19 20  1  0
 20 21  2  0
 21 22  1  0
 22 23  2  0
 23 24  1  0
 24 25  2  0
 23 26  1  0
 26 27  2  0
 27 28  1  0
 28 29  2  0
 29 30  1  0
 30 31  2  0
 29 32  1  0
 32 33  2  3
 33 34  1  0
 34 35  2  0
 35 36  1  0
 36 37  2  0
 37 38  1  0
 38 39  2  0
 39 40  1  0
 40 41  2  0
 41 42  1  0
 42 43  2  0
 43 44  1  0
 36 45  1  0
 45 46  1  0
 45 47  2  0
 45 48  2  0
 13  4  1  0
 13  8  1  0
 25 20  1  0
 31 26  1  0
 43 34  1  0
 42 37  1  0
  3 49  1  0
  3 50  1  0
  6 51  1  0
  9 52  1  0
 10 53  1  0
 11 54  1  0
 12 55  1  0
 21 56  1  0
 22 57  1  0
 24 58  1  0
 25 59  1  0
 27 60  1  0
 28 61  1  0
 30 62  1  0
 31 63  1  0
 35 64  1  0
 38 65  1  0
 39 66  1  0
 40 67  1  0
 41 68  1  0
 44 69  1  0
 44 70  1  0
M  CHG  4   1   1   2   1  15  -1  46  -1
M  END
$$$$
