OMPs000016
     RDKit          3D

 19 19  0  0  0  0  0  0  0  0999 V2000
    1.8146    0.6320   -1.3773 O   0  0  0  0  0  0  0  0  0  0  0  0
    2.7081    0.0983   -0.5367 C   0  0  0  0  0  0  0  0  0  0  0  0
    3.8513    0.5155   -0.4686 O   0  0  0  0  0  0  0  0  0  0  0  0
    2.2135   -1.0622    0.2165 C   0  0  0  0  0  0  0  0  0  0  0  0
    0.9551   -1.3479    0.5869 C   0  0  0  0  0  0  0  0  0  0  0  0
   -0.2416   -0.5306    0.3727 C   0  0  0  0  0  0  0  0  0  0  0  0
   -1.2918   -1.0336   -0.4028 C   0  0  0  0  0  0  0  0  0  0  0  0
   -2.4523   -0.2797   -0.5911 C   0  0  0  0  0  0  0  0  0  0  0  0
   -2.5726    0.9767    0.0010 C   0  0  0  0  0  0  0  0  0  0  0  0
   -1.5342    1.4804    0.7830 C   0  0  0  0  0  0  0  0  0  0  0  0
   -0.3729    0.7280    0.9717 C   0  0  0  0  0  0  0  0  0  0  0  0
    2.2921    1.3681   -1.8086 H   0  0  0  0  0  0  0  0  0  0  0  0
    3.0098   -1.7408    0.5078 H   0  0  0  0  0  0  0  0  0  0  0  0
    0.7701   -2.2728    1.1296 H   0  0  0  0  0  0  0  0  0  0  0  0
   -1.2104   -2.0107   -0.8726 H   0  0  0  0  0  0  0  0  0  0  0  0
   -3.2613   -0.6730   -1.2009 H   0  0  0  0  0  0  0  0  0  0  0  0
   -3.4757    1.5631   -0.1466 H   0  0  0  0  0  0  0  0  0  0  0  0
   -1.6279    2.4585    1.2471 H   0  0  0  0  0  0  0  0  0  0  0  0
    0.4263    1.1308    1.5890 H   0  0  0  0  0  0  0  0  0  0  0  0
  1  2  1  0
  2  3  2  0
  2  4  1  0
  4  5  2  3
  5  6  1  0
  6  7  2  0
  7  8  1  0
  8  9  2  0
  9 10  1  0
 10 11  2  0
 11  6  1  0
  1 12  1  0
  4 13  1  0
  5 14  1  0
  7 15  1  0
  8 16  1  0
  9 17  1  0
 10 18  1  0
 11 19  1  0
M  END
$$$$
