OMPs000163
     RDKit          3D

 15 15  0  0  0  0  0  0  0  0999 V2000
   -1.1720   -2.0569   -0.2033 O   0  0  0  0  0  0  0  0  0  0  0  0
   -0.3168   -0.9914   -0.1230 C   0  0  0  0  0  0  0  0  0  0  0  0
    1.0318   -1.2986   -0.3069 C   0  0  0  0  0  0  0  0  0  0  0  0
    1.9988   -0.2933   -0.2473 C   0  0  0  0  0  0  0  0  0  0  0  0
    1.6234    1.0274   -0.0031 C   0  0  0  0  0  0  0  0  0  0  0  0
    0.2771    1.3476    0.1827 C   0  0  0  0  0  0  0  0  0  0  0  0
   -0.6956    0.3358    0.1226 C   0  0  0  0  0  0  0  0  0  0  0  0
   -2.1011    0.6961    0.3206 N   0  0  0  0  0  0  0  0  0  0  0  0
   -2.9400   -0.2180    0.2623 O   0  0  0  0  0  0  0  0  0  0  0  0
   -2.3756    1.8851    0.5340 O   0  0  0  0  0  0  0  0  0  0  0  0
   -2.0944   -1.7553   -0.0632 H   0  0  0  0  0  0  0  0  0  0  0  0
    1.3309   -2.3270   -0.4978 H   0  0  0  0  0  0  0  0  0  0  0  0
    3.0477   -0.5433   -0.3921 H   0  0  0  0  0  0  0  0  0  0  0  0
    2.3805    1.8075    0.0425 H   0  0  0  0  0  0  0  0  0  0  0  0
    0.0054    2.3844    0.3721 H   0  0  0  0  0  0  0  0  0  0  0  0
  1  2  1  0
  2  3  2  0
  3  4  1  0
  4  5  2  0
  5  6  1  0
  6  7  2  0
  7  8  1  0
  8  9  1  0
  8 10  2  0
  7  2  1  0
  1 11  1  0
  3 12  1  0
  4 13  1  0
  5 14  1  0
  6 15  1  0
M  CHG  2   8   1   9  -1
M  END
$$$$
