OMPs000085
     RDKit          3D

 38 38  0  0  0  0  0  0  0  0999 V2000
    0.0000    0.0000    0.0000 Na  0  0  0  0  0 15  0  0  0  0  0  0
   -3.3718   -1.3910   -1.0779 C   0  0  0  0  0  0  0  0  0  0  0  0
   -2.5295   -0.2247   -0.8295 N   0  0  0  0  0  0  0  0  0  0  0  0
   -3.2903    0.8548   -0.0861 C   0  0  0  0  0  0  0  0  0  0  0  0
   -3.9243    0.4929    1.6082 S   0  0  0  0  0  6  0  0  0  0  0  0
   -4.9157   -0.5675    1.4047 O   0  0  0  0  0  0  0  0  0  0  0  0
   -2.7444    0.0729    2.3684 O   0  0  0  0  0  0  0  0  0  0  0  0
   -4.4999    1.7658    2.0457 O   0  0  0  0  0  0  0  0  0  0  0  0
   -1.1765   -0.3462   -0.5135 C   0  0  0  0  0  0  0  0  0  0  0  0
   -0.4089   -1.3397   -0.0199 C   0  0  0  0  0  0  0  0  0  0  0  0
   -0.8695   -2.7122    0.3546 C   0  0  0  0  0  0  0  0  0  0  0  0
    0.9115   -0.9515    0.2786 N   0  0  0  0  0  0  0  0  0  0  0  0
    1.2785   -1.0090    1.7128 C   0  0  0  0  0  0  0  0  0  0  0  0
    1.0403    0.3651   -0.2425 N   0  0  0  0  0  0  0  0  0  0  0  0
   -0.2088    0.8129   -0.6886 C   0  0  0  0  0  0  0  0  0  0  0  0
   -0.5034    1.8792   -1.2140 O   0  0  0  0  0  0  0  0  0  0  0  0
    2.3086    0.9057   -0.5757 C   0  0  0  0  0  0  0  0  0  0  0  0
    2.4457    2.2408   -0.9777 C   0  0  0  0  0  0  0  0  0  0  0  0
    3.6985    2.7730   -1.3029 C   0  0  0  0  0  0  0  0  0  0  0  0
    4.8369    1.9753   -1.2356 C   0  0  0  0  0  0  0  0  0  0  0  0
    4.7224    0.6447   -0.8455 C   0  0  0  0  0  0  0  0  0  0  0  0
    3.4688    0.1164   -0.5196 C   0  0  0  0  0  0  0  0  0  0  0  0
   -2.9283   -2.0141   -1.8623 H   0  0  0  0  0  0  0  0  0  0  0  0
   -4.3600   -1.0882   -1.4417 H   0  0  0  0  0  0  0  0  0  0  0  0
   -3.5051   -2.0023   -0.1812 H   0  0  0  0  0  0  0  0  0  0  0  0
   -4.1693    1.1376   -0.6779 H   0  0  0  0  0  0  0  0  0  0  0  0
   -2.6772    1.7557    0.0213 H   0  0  0  0  0  0  0  0  0  0  0  0
   -1.4149   -3.1881   -0.4647 H   0  0  0  0  0  0  0  0  0  0  0  0
   -0.0201   -3.3685    0.5730 H   0  0  0  0  0  0  0  0  0  0  0  0
   -1.5053   -2.6785    1.2447 H   0  0  0  0  0  0  0  0  0  0  0  0
    0.5859   -0.4153    2.3215 H   0  0  0  0  0  0  0  0  0  0  0  0
    1.2593   -2.0437    2.0706 H   0  0  0  0  0  0  0  0  0  0  0  0
    2.2911   -0.6319    1.8846 H   0  0  0  0  0  0  0  0  0  0  0  0
    1.5826    2.8998   -1.0276 H   0  0  0  0  0  0  0  0  0  0  0  0
    3.7757    3.8135   -1.6068 H   0  0  0  0  0  0  0  0  0  0  0  0
    5.8081    2.3891   -1.4906 H   0  0  0  0  0  0  0  0  0  0  0  0
    5.6036    0.0110   -0.8003 H   0  0  0  0  0  0  0  0  0  0  0  0
    3.4056   -0.9336   -0.2473 H   0  0  0  0  0  0  0  0  0  0  0  0
  2  3  1  0
  3  4  1  0
  4  5  1  0
  5  6  1  0
  5  7  2  0
  5  8  2  0
  3  9  1  0
  9 10  2  0
 10 11  1  0
 10 12  1  0
 12 13  1  0
 12 14  1  0
 14 15  1  0
 15 16  2  0
 14 17  1  0
 17 18  2  0
 18 19  1  0
 19 20  2  0
 20 21  1  0
 21 22  2  0
 15  9  1  0
 22 17  1  0
  2 23  1  0
  2 24  1  0
  2 25  1  0
  4 26  1  0
  4 27  1  0
 11 28  1  0
 11 29  1  0
 11 30  1  0
 13 31  1  0
 13 32  1  0
 13 33  1  0
 18 34  1  0
 19 35  1  0
 20 36  1  0
 21 37  1  0
 22 38  1  0
M  CHG  2   1   1   6  -1
M  END
$$$$
