OMPs000091
     RDKit          3D

 24 25  0  0  0  0  0  0  0  0999 V2000
   -2.0716    2.4895    0.3609 O   0  0  0  0  0  0  0  0  0  0  0  0
   -2.1857    1.1373    0.1977 C   0  0  0  0  0  0  0  0  0  0  0  0
   -3.3410    0.5193    0.6613 C   0  0  0  0  0  0  0  0  0  0  0  0
   -3.4856   -0.8567    0.4960 C   0  0  0  0  0  0  0  0  0  0  0  0
   -4.9095   -1.6400    1.0620 Cl  0  0  0  0  0  0  0  0  0  0  0  0
   -2.4885   -1.6076   -0.1317 C   0  0  0  0  0  0  0  0  0  0  0  0
   -1.3280   -0.9803   -0.5930 C   0  0  0  0  0  0  0  0  0  0  0  0
   -1.1689    0.3952   -0.4088 C   0  0  0  0  0  0  0  0  0  0  0  0
   -0.0630    1.0818   -0.8590 O   0  0  0  0  0  0  0  0  0  0  0  0
    1.1680    0.5535   -0.5347 C   0  0  0  0  0  0  0  0  0  0  0  0
    1.5100    0.2990    0.7989 C   0  0  0  0  0  0  0  0  0  0  0  0
    2.7780   -0.1971    1.1075 C   0  0  0  0  0  0  0  0  0  0  0  0
    3.7027   -0.4218    0.0873 C   0  0  0  0  0  0  0  0  0  0  0  0
    5.2636   -1.0331    0.4740 Cl  0  0  0  0  0  0  0  0  0  0  0  0
    3.3770   -0.1506   -1.2405 C   0  0  0  0  0  0  0  0  0  0  0  0
    2.1097    0.3451   -1.5497 C   0  0  0  0  0  0  0  0  0  0  0  0
    1.7331    0.6760   -3.2010 Cl  0  0  0  0  0  0  0  0  0  0  0  0
   -1.2486    2.7607   -0.0867 H   0  0  0  0  0  0  0  0  0  0  0  0
   -4.1176    1.1088    1.1388 H   0  0  0  0  0  0  0  0  0  0  0  0
   -2.6135   -2.6787   -0.2702 H   0  0  0  0  0  0  0  0  0  0  0  0
   -0.5674   -1.5681   -1.0991 H   0  0  0  0  0  0  0  0  0  0  0  0
    0.8001    0.4894    1.6004 H   0  0  0  0  0  0  0  0  0  0  0  0
    3.0403   -0.4001    2.1433 H   0  0  0  0  0  0  0  0  0  0  0  0
    4.1062   -0.3215   -2.0279 H   0  0  0  0  0  0  0  0  0  0  0  0
  1  2  1  0
  2  3  2  0
  3  4  1  0
  4  5  1  0
  4  6  2  0
  6  7  1  0
  7  8  2  0
  8  9  1  0
  9 10  1  0
 10 11  2  0
 11 12  1  0
 12 13  2  0
 13 14  1  0
 13 15  1  0
 15 16  2  0
 16 17  1  0
  8  2  1  0
 16 10  1  0
  1 18  1  0
  3 19  1  0
  6 20  1  0
  7 21  1  0
 11 22  1  0
 12 23  1  0
 15 24  1  0
M  END
$$$$
