OMPs000095
     RDKit          3D

 31 31  0  0  0  0  0  0  0  0999 V2000
   -1.3508   -0.6963    2.1679 C   0  0  0  0  0  0  0  0  0  0  0  0
   -1.5105   -0.7584    0.6566 C   0  0  0  0  0  0  0  0  0  0  0  0
   -1.5089    0.5727    0.0390 N   0  0  0  0  0  0  0  0  0  0  0  0
   -2.7527    1.3407    0.0918 C   0  0  0  0  0  0  0  0  0  0  0  0
   -3.6962    0.9927   -1.0502 C   0  0  0  0  0  0  0  0  0  0  0  0
   -0.4873    1.0628   -0.7797 C   0  0  0  0  0  0  0  0  0  0  0  0
   -0.5888    2.0782   -1.4645 O   0  0  0  0  0  0  0  0  0  0  0  0
    0.7917    0.3290   -0.8448 C   0  0  0  0  0  0  0  0  0  0  0  0
    1.1659   -0.2706   -2.0492 C   0  0  0  0  0  0  0  0  0  0  0  0
    2.3798   -0.9506   -2.1281 C   0  0  0  0  0  0  0  0  0  0  0  0
    3.2165   -1.0204   -1.0107 C   0  0  0  0  0  0  0  0  0  0  0  0
    2.8501   -0.4110    0.1978 C   0  0  0  0  0  0  0  0  0  0  0  0
    3.7778   -0.4413    1.3762 C   0  0  0  0  0  0  0  0  0  0  0  0
    1.6367    0.2841    0.2690 C   0  0  0  0  0  0  0  0  0  0  0  0
   -0.4263   -0.1862    2.4522 H   0  0  0  0  0  0  0  0  0  0  0  0
   -2.1817   -0.1595    2.6359 H   0  0  0  0  0  0  0  0  0  0  0  0
   -1.3260   -1.7072    2.5867 H   0  0  0  0  0  0  0  0  0  0  0  0
   -0.7174   -1.3810    0.2342 H   0  0  0  0  0  0  0  0  0  0  0  0
   -2.4553   -1.2517    0.4026 H   0  0  0  0  0  0  0  0  0  0  0  0
   -3.2422    1.1645    1.0549 H   0  0  0  0  0  0  0  0  0  0  0  0
   -2.5139    2.4096    0.0448 H   0  0  0  0  0  0  0  0  0  0  0  0
   -4.6073    1.5956   -0.9857 H   0  0  0  0  0  0  0  0  0  0  0  0
   -3.9840   -0.0628   -1.0194 H   0  0  0  0  0  0  0  0  0  0  0  0
   -3.2298    1.1822   -2.0223 H   0  0  0  0  0  0  0  0  0  0  0  0
    0.5186   -0.1994   -2.9195 H   0  0  0  0  0  0  0  0  0  0  0  0
    2.6811   -1.4171   -3.0626 H   0  0  0  0  0  0  0  0  0  0  0  0
    4.1666   -1.5449   -1.0931 H   0  0  0  0  0  0  0  0  0  0  0  0
    4.4558    0.4169    1.3410 H   0  0  0  0  0  0  0  0  0  0  0  0
    4.3709   -1.3618    1.3825 H   0  0  0  0  0  0  0  0  0  0  0  0
    3.2158   -0.4109    2.3157 H   0  0  0  0  0  0  0  0  0  0  0  0
    1.3518    0.8021    1.1811 H   0  0  0  0  0  0  0  0  0  0  0  0
  1  2  1  0
  2  3  1  0
  3  4  1  0
  4  5  1  0
  3  6  1  0
  6  7  2  0
  6  8  1  0
  8  9  2  0
  9 10  1  0
 10 11  2  0
 11 12  1  0
 12 13  1  0
 12 14  2  0
 14  8  1  0
  1 15  1  0
  1 16  1  0
  1 17  1  0
  2 18  1  0
  2 19  1  0
  4 20  1  0
  4 21  1  0
  5 22  1  0
  5 23  1  0
  5 24  1  0
  9 25  1  0
 10 26  1  0
 11 27  1  0
 13 28  1  0
 13 29  1  0
 13 30  1  0
 14 31  1  0
M  END
$$$$
