OMPs000129
     RDKit          3D

 45 46  0  0  0  0  0  0  0  0999 V2000
   -4.6018   -1.4522    1.5103 O   0  0  0  0  0  0  0  0  0  0  0  0
   -3.3309   -0.8107    1.5342 C   0  0  0  0  0  0  0  0  0  0  0  0
   -2.7799   -0.6682    0.1118 C   0  0  0  0  0  0  0  0  0  0  0  0
   -1.4046   -0.2516    0.2008 O   0  0  0  0  0  0  0  0  0  0  0  0
   -0.7738   -0.1736   -1.0719 C   0  0  0  0  0  0  0  0  0  0  0  0
    0.5860    0.2654   -0.9498 O   0  0  0  0  0  0  0  0  0  0  0  0
    1.3988   -0.5977   -0.1406 C   0  0  0  0  0  0  0  0  0  0  0  0
    2.8194   -0.5985   -0.7410 C   0  0  0  0  0  0  0  0  0  0  0  0
    3.3090    0.7180   -1.0156 O   0  0  0  0  0  0  0  0  0  0  0  0
    3.7934   -1.3542    0.1677 C   0  0  0  0  0  0  0  0  0  0  0  0
    3.4728   -2.7565    0.0945 O   0  0  0  0  0  0  0  0  0  0  0  0
    3.7067   -0.8358    1.6223 C   0  0  0  0  0  0  0  0  0  0  0  0
    4.2271    0.4722    1.7771 O   0  0  0  0  0  0  0  0  0  0  0  0
    2.3828   -0.8957    2.1306 O   0  0  0  0  0  0  0  0  0  0  0  0
    1.3773   -0.2108    1.3571 C   0  0  0  0  0  0  0  0  0  0  0  0
    1.3260    1.2991    1.6674 C   0  0  0  0  0  0  0  0  0  0  0  0
    2.2861    2.0851    0.9670 O   0  0  0  0  0  0  0  0  0  0  0  0
   -1.4873    0.8453   -1.9779 C   0  0  0  0  0  0  0  0  0  0  0  0
   -0.9055    0.8737   -3.2920 O   0  0  0  0  0  0  0  0  0  0  0  0
   -2.9666    0.4800   -2.1087 C   0  0  0  0  0  0  0  0  0  0  0  0
   -3.6523    1.5180   -2.8318 O   0  0  0  0  0  0  0  0  0  0  0  0
   -3.6115    0.3192   -0.7291 C   0  0  0  0  0  0  0  0  0  0  0  0
   -3.6647    1.6130   -0.1033 O   0  0  0  0  0  0  0  0  0  0  0  0
   -4.9585   -1.3930    2.4148 H   0  0  0  0  0  0  0  0  0  0  0  0
   -3.4231    0.1632    2.0287 H   0  0  0  0  0  0  0  0  0  0  0  0
   -2.6497   -1.4173    2.1430 H   0  0  0  0  0  0  0  0  0  0  0  0
   -2.8087   -1.6545   -0.3720 H   0  0  0  0  0  0  0  0  0  0  0  0
   -0.7634   -1.1611   -1.5528 H   0  0  0  0  0  0  0  0  0  0  0  0
    1.0339   -1.6320   -0.2194 H   0  0  0  0  0  0  0  0  0  0  0  0
    2.7673   -1.0955   -1.7180 H   0  0  0  0  0  0  0  0  0  0  0  0
    2.5493    1.3381   -0.9128 H   0  0  0  0  0  0  0  0  0  0  0  0
    4.8181   -1.2226   -0.2011 H   0  0  0  0  0  0  0  0  0  0  0  0
    3.7313   -3.1792    0.9341 H   0  0  0  0  0  0  0  0  0  0  0  0
    4.3107   -1.5030    2.2511 H   0  0  0  0  0  0  0  0  0  0  0  0
    4.5891    0.5163    2.6837 H   0  0  0  0  0  0  0  0  0  0  0  0
    0.4422   -0.6017    1.7761 H   0  0  0  0  0  0  0  0  0  0  0  0
    0.3417    1.7010    1.4022 H   0  0  0  0  0  0  0  0  0  0  0  0
    1.4802    1.4695    2.7385 H   0  0  0  0  0  0  0  0  0  0  0  0
    3.1654    1.6624    1.1133 H   0  0  0  0  0  0  0  0  0  0  0  0
   -1.3834    1.8592   -1.5727 H   0  0  0  0  0  0  0  0  0  0  0  0
    0.0384    1.0931   -3.1503 H   0  0  0  0  0  0  0  0  0  0  0  0
   -3.0783   -0.4436   -2.6903 H   0  0  0  0  0  0  0  0  0  0  0  0
   -3.1019    1.6775   -3.6273 H   0  0  0  0  0  0  0  0  0  0  0  0
   -4.6485   -0.0200   -0.8326 H   0  0  0  0  0  0  0  0  0  0  0  0
   -3.9587    2.2192   -0.8155 H   0  0  0  0  0  0  0  0  0  0  0  0
  1  2  1  0
  2  3  1  0
  3  4  1  0
  4  5  1  0
  5  6  1  0
  6  7  1  0
  7  8  1  0
  8  9  1  0
  8 10  1  0
 10 11  1  0
 10 12  1  0
 12 13  1  0
 12 14  1  0
 14 15  1  0
 15 16  1  0
 16 17  1  0
  5 18  1  0
 18 19  1  0
 18 20  1  0
 20 21  1  0
 20 22  1  0
 22 23  1  0
 22  3  1  0
 15  7  1  0
  1 24  1  0
  2 25  1  0
  2 26  1  0
  3 27  1  0
  5 28  1  0
  7 29  1  0
  8 30  1  0
  9 31  1  0
 10 32  1  0
 11 33  1  0
 12 34  1  0
 13 35  1  0
 15 36  1  0
 16 37  1  0
 16 38  1  0
 17 39  1  0
 18 40  1  0
 19 41  1  0
 20 42  1  0
 21 43  1  0
 22 44  1  0
 23 45  1  0
M  END
$$$$
