OMPs000029
     RDKit          3D

 18 17  0  0  0  0  0  0  0  0999 V2000
    3.1250   -0.4695   -0.3636 O   0  0  0  0  0  0  0  0  0  0  0  0
    1.7888   -0.9753   -0.2922 C   0  0  0  0  0  0  0  0  0  0  0  0
    0.8209    0.1686    0.0358 C   0  0  1  0  0  0  0  0  0  0  0  0
    1.0110    1.2146   -0.9337 O   0  0  0  0  0  0  0  0  0  0  0  0
   -0.6426   -0.2897    0.0600 C   0  0  1  0  0  0  0  0  0  0  0  0
   -0.8183   -1.3780    0.9722 O   0  0  0  0  0  0  0  0  0  0  0  0
   -1.5837    0.8480    0.4721 C   0  0  0  0  0  0  0  0  0  0  0  0
   -2.9169    0.3282    0.5152 O   0  0  0  0  0  0  0  0  0  0  0  0
    3.0541    0.4580   -0.6615 H   0  0  0  0  0  0  0  0  0  0  0  0
    1.5590   -1.4114   -1.2698 H   0  0  0  0  0  0  0  0  0  0  0  0
    1.7610   -1.7650    0.4637 H   0  0  0  0  0  0  0  0  0  0  0  0
    1.1031    0.5884    1.0086 H   0  0  0  0  0  0  0  0  0  0  0  0
    0.8584    0.8300   -1.8165 H   0  0  0  0  0  0  0  0  0  0  0  0
   -0.9430   -0.6512   -0.9310 H   0  0  0  0  0  0  0  0  0  0  0  0
   -1.7885   -1.4528    1.0876 H   0  0  0  0  0  0  0  0  0  0  0  0
   -1.5524    1.6775   -0.2403 H   0  0  0  0  0  0  0  0  0  0  0  0
   -1.3411    1.2125    1.4755 H   0  0  0  0  0  0  0  0  0  0  0  0
   -3.4949    1.0671    0.7780 H   0  0  0  0  0  0  0  0  0  0  0  0
  1  2  1  0
  2  3  1  0
  3  4  1  0
  3  5  1  0
  5  6  1  0
  5  7  1  0
  7  8  1  0
  1  9  1  0
  2 10  1  0
  2 11  1  0
  3 12  1  1
  4 13  1  0
  5 14  1  6
  6 15  1  0
  7 16  1  0
  7 17  1  0
  8 18  1  0
M  END
$$$$
