OMPs000179
     RDKit          3D

 20 19  0  0  0  0  0  0  0  0999 V2000
   -1.4364   -2.3076   -0.3534 N   0  0  0  0  0  0  0  0  0  0  0  0
   -0.7407   -1.0709    0.0892 C   0  0  1  0  0  0  0  0  0  0  0  0
   -0.0907   -0.4227   -1.1411 C   0  0  0  0  0  0  0  0  0  0  0  0
    0.7446    0.8276   -0.8558 C   0  0  0  0  0  0  0  0  0  0  0  0
    1.9591    0.5676    0.0091 C   0  0  0  0  0  0  0  0  0  0  0  0
    2.6333    1.6949    0.3783 N   0  0  0  0  0  0  0  0  0  0  0  0
    2.3544   -0.5394    0.3484 O   0  0  0  0  0  0  0  0  0  0  0  0
   -1.7621   -0.1395    0.7541 C   0  0  0  0  0  0  0  0  0  0  0  0
   -1.2064    0.7556    1.5940 O   0  0  0  0  0  0  0  0  0  0  0  0
   -2.9732   -0.1575    0.5899 O   0  0  0  0  0  0  0  0  0  0  0  0
   -1.8317   -2.7658    0.4689 H   0  0  0  0  0  0  0  0  0  0  0  0
   -2.2500   -2.0324   -0.9095 H   0  0  0  0  0  0  0  0  0  0  0  0
   -0.0009   -1.3673    0.8385 H   0  0  0  0  0  0  0  0  0  0  0  0
    0.5481   -1.1624   -1.6422 H   0  0  0  0  0  0  0  0  0  0  0  0
   -0.8712   -0.1437   -1.8621 H   0  0  0  0  0  0  0  0  0  0  0  0
    0.1329    1.6108   -0.3974 H   0  0  0  0  0  0  0  0  0  0  0  0
    1.1102    1.2252   -1.8110 H   0  0  0  0  0  0  0  0  0  0  0  0
    2.2409    2.6197    0.2744 H   0  0  0  0  0  0  0  0  0  0  0  0
    3.4158    1.5736    1.0087 H   0  0  0  0  0  0  0  0  0  0  0  0
   -1.9761    1.2343    1.9681 H   0  0  0  0  0  0  0  0  0  0  0  0
  1  2  1  0
  2  3  1  0
  3  4  1  0
  4  5  1  0
  5  6  1  0
  5  7  2  0
  2  8  1  0
  8  9  1  0
  8 10  2  0
  1 11  1  0
  1 12  1  0
  2 13  1  1
  3 14  1  0
  3 15  1  0
  4 16  1  0
  4 17  1  0
  6 18  1  0
  6 19  1  0
  9 20  1  0
M  END
$$$$
