OMPs000141
     RDKit          3D

 29 30  0  0  0  0  0  0  0  0999 V2000
   -1.5650   -2.4350   -0.9687 C   0  0  0  0  0  0  0  0  0  0  0  0
   -1.3157   -1.9604    0.4562 C   0  0  0  0  0  0  0  0  0  0  0  0
   -0.9946   -0.5292    0.4877 N   0  0  0  0  0  0  0  0  0  0  0  0
   -1.9528    0.4615    0.6009 C   0  0  0  0  0  0  0  0  0  0  0  0
   -1.7217    1.7833    0.5928 C   0  0  0  0  0  0  0  0  0  0  0  0
   -2.8801    2.6788    0.6998 C   0  0  0  0  0  0  0  0  0  0  0  0
   -2.6810    3.8838    0.1472 O   0  0  0  0  0  0  0  0  0  0  0  0
   -3.9630    2.3853    1.1807 O   0  0  0  0  0  0  0  0  0  0  0  0
   -0.3090    2.2186    0.4788 C   0  0  0  0  0  0  0  0  0  0  0  0
    0.0361    3.3917    0.5766 O   0  0  0  0  0  0  0  0  0  0  0  0
    0.7191    1.1720    0.2693 C   0  0  0  0  0  0  0  0  0  0  0  0
    2.0544    1.5313    0.0712 C   0  0  0  0  0  0  0  0  0  0  0  0
    3.0029    0.5347   -0.1191 C   0  0  0  0  0  0  0  0  0  0  0  0
    2.5847   -0.7897   -0.1030 C   0  0  0  0  0  0  0  0  0  0  0  0
    3.5785   -1.8944   -0.3047 C   0  0  0  0  0  0  0  0  0  0  0  0
    1.2911   -1.1479    0.0917 N   0  0  0  0  0  0  0  0  0  0  0  0
    0.3588   -0.1798    0.2785 C   0  0  0  0  0  0  0  0  0  0  0  0
   -2.3834   -1.8746   -1.4327 H   0  0  0  0  0  0  0  0  0  0  0  0
   -0.6766   -2.3094   -1.5956 H   0  0  0  0  0  0  0  0  0  0  0  0
   -1.8348   -3.4957   -0.9719 H   0  0  0  0  0  0  0  0  0  0  0  0
   -2.2211   -2.1432    1.0493 H   0  0  0  0  0  0  0  0  0  0  0  0
   -0.5345   -2.5666    0.9311 H   0  0  0  0  0  0  0  0  0  0  0  0
   -2.9661    0.0733    0.6923 H   0  0  0  0  0  0  0  0  0  0  0  0
   -3.5136    4.3743    0.2994 H   0  0  0  0  0  0  0  0  0  0  0  0
    2.3509    2.5774    0.0655 H   0  0  0  0  0  0  0  0  0  0  0  0
    4.0459    0.7912   -0.2754 H   0  0  0  0  0  0  0  0  0  0  0  0
    4.3409   -1.8650    0.4799 H   0  0  0  0  0  0  0  0  0  0  0  0
    4.0622   -1.7943   -1.2813 H   0  0  0  0  0  0  0  0  0  0  0  0
    3.0871   -2.8720   -0.2663 H   0  0  0  0  0  0  0  0  0  0  0  0
  1  2  1  0
  2  3  1  0
  3  4  1  0
  4  5  2  0
  5  6  1  0
  6  7  1  0
  6  8  2  0
  5  9  1  0
  9 10  2  0
  9 11  1  0
 11 12  2  0
 12 13  1  0
 13 14  2  0
 14 15  1  0
 14 16  1  0
 16 17  2  0
 17  3  1  0
 17 11  1  0
  1 18  1  0
  1 19  1  0
  1 20  1  0
  2 21  1  0
  2 22  1  0
  4 23  1  0
  7 24  1  0
 12 25  1  0
 13 26  1  0
 15 27  1  0
 15 28  1  0
 15 29  1  0
M  END
$$$$
