OMPs000023
     RDKit          3D

 15 14  0  0  0  0  0  0  0  0999 V2000
   -1.4973    0.9699   -0.2239 C   0  0  0  0  0  0  0  0  0  0  0  0
   -0.8481   -0.0760    0.6690 C   0  0  0  0  0  0  0  0  0  0  0  0
    0.1795   -0.9461   -0.0605 C   0  0  0  0  0  0  0  0  0  0  0  0
    1.3900   -0.1828   -0.5880 C   0  0  0  0  0  0  0  0  0  0  0  0
    2.0598    0.4980    0.4632 O   0  0  0  0  0  0  0  0  0  0  0  0
   -1.9470    0.5074   -1.1082 H   0  0  0  0  0  0  0  0  0  0  0  0
   -2.2879    1.4928    0.3239 H   0  0  0  0  0  0  0  0  0  0  0  0
   -0.7728    1.7196   -0.5550 H   0  0  0  0  0  0  0  0  0  0  0  0
   -1.6333   -0.7295    1.0679 H   0  0  0  0  0  0  0  0  0  0  0  0
   -0.3841    0.4176    1.5306 H   0  0  0  0  0  0  0  0  0  0  0  0
    0.5276   -1.7094    0.6465 H   0  0  0  0  0  0  0  0  0  0  0  0
   -0.3050   -1.4735   -0.8904 H   0  0  0  0  0  0  0  0  0  0  0  0
    2.0993   -0.8740   -1.0549 H   0  0  0  0  0  0  0  0  0  0  0  0
    1.1005    0.5525   -1.3441 H   0  0  0  0  0  0  0  0  0  0  0  0
    2.3187   -0.1665    1.1242 H   0  0  0  0  0  0  0  0  0  0  0  0
  1  2  1  0
  2  3  1  0
  3  4  1  0
  4  5  1  0
  1  6  1  0
  1  7  1  0
  1  8  1  0
  2  9  1  0
  2 10  1  0
  3 11  1  0
  3 12  1  0
  4 13  1  0
  4 14  1  0
  5 15  1  0
M  END
$$$$
