OMPs000171
     RDKit          3D

 20 22  0  0  0  0  0  0  0  0999 V2000
    2.4828   -0.9134    0.1523 C   0  0  0  0  0  0  0  0  0  0  0  0
    1.3558   -1.7649    0.1504 C   0  0  0  0  0  0  0  0  0  0  0  0
    0.0591   -1.2202    0.0673 C   0  0  0  0  0  0  0  0  0  0  0  0
   -1.1786   -1.8931    0.0513 C   0  0  0  0  0  0  0  0  0  0  0  0
   -2.3823   -1.1596   -0.0380 C   0  0  0  0  0  0  0  0  0  0  0  0
   -2.3783    0.2459   -0.1125 C   0  0  0  0  0  0  0  0  0  0  0  0
   -1.1618    0.9012   -0.0964 C   0  0  0  0  0  0  0  0  0  0  0  0
   -0.7852    2.3074   -0.1554 C   0  0  0  0  0  0  0  0  0  0  0  0
    0.5583    2.3753   -0.1028 C   0  0  0  0  0  0  0  0  0  0  0  0
    1.0690    1.0141   -0.0092 C   0  0  0  0  0  0  0  0  0  0  0  0
    2.3429    0.4848    0.0722 C   0  0  0  0  0  0  0  0  0  0  0  0
   -0.0082    0.1697   -0.0094 C   0  0  0  0  0  0  0  0  0  0  0  0
    3.4782   -1.3478    0.2170 H   0  0  0  0  0  0  0  0  0  0  0  0
    1.4947   -2.8408    0.2134 H   0  0  0  0  0  0  0  0  0  0  0  0
   -1.2129   -2.9778    0.1075 H   0  0  0  0  0  0  0  0  0  0  0  0
   -3.3309   -1.6923   -0.0493 H   0  0  0  0  0  0  0  0  0  0  0  0
   -3.3102    0.7969   -0.1807 H   0  0  0  0  0  0  0  0  0  0  0  0
   -1.4808    3.1266   -0.2280 H   0  0  0  0  0  0  0  0  0  0  0  0
    1.1714    3.2608   -0.1243 H   0  0  0  0  0  0  0  0  0  0  0  0
    3.2170    1.1272    0.0746 H   0  0  0  0  0  0  0  0  0  0  0  0
  1  2  2  0
  2  3  1  0
  3  4  2  0
  4  5  1  0
  5  6  2  0
  6  7  1  0
  7  8  1  0
  8  9  2  0
  9 10  1  0
 10 11  2  0
 10 12  1  0
 11  1  1  0
 12  3  1  0
 12  7  2  0
  1 13  1  0
  2 14  1  0
  4 15  1  0
  5 16  1  0
  6 17  1  0
  8 18  1  0
  9 19  1  0
 11 20  1  0
M  END
$$$$
