OMPs000081
     RDKit          3D

 33 33  0  0  0  0  0  0  0  0999 V2000
   -4.6327   -0.6042   -0.0652 C   0  0  0  0  0  0  0  0  0  0  0  0
   -3.7539    0.5525   -0.5479 C   0  0  0  0  0  0  0  0  0  0  0  0
   -4.2285    1.8818    0.0444 C   0  0  0  0  0  0  0  0  0  0  0  0
   -2.2870    0.3011   -0.2489 C   0  0  0  0  0  0  0  0  0  0  0  0
   -1.3675    0.2032   -1.3015 C   0  0  0  0  0  0  0  0  0  0  0  0
   -0.0094   -0.0299   -1.0530 C   0  0  0  0  0  0  0  0  0  0  0  0
    0.4563   -0.1770    0.2526 C   0  0  0  0  0  0  0  0  0  0  0  0
    1.8093   -0.3955    0.5817 N   0  0  0  0  0  0  0  0  0  0  0  0
    2.8296   -0.7589   -0.2691 C   0  0  0  0  0  0  0  0  0  0  0  0
    2.6759   -1.1182   -1.4335 O   0  0  0  0  0  0  0  0  0  0  0  0
    4.0978   -0.7219    0.3239 N   0  0  0  0  0  0  0  0  0  0  0  0
    4.4612    0.2171    1.3775 C   0  0  0  0  0  0  0  0  0  0  0  0
    5.2062   -1.2045   -0.4834 C   0  0  0  0  0  0  0  0  0  0  0  0
   -0.4548   -0.0696    1.3086 C   0  0  0  0  0  0  0  0  0  0  0  0
   -1.8120    0.1635    1.0616 C   0  0  0  0  0  0  0  0  0  0  0  0
   -4.6109   -0.7084    1.0250 H   0  0  0  0  0  0  0  0  0  0  0  0
   -4.3012   -1.5547   -0.4981 H   0  0  0  0  0  0  0  0  0  0  0  0
   -5.6748   -0.4458   -0.3630 H   0  0  0  0  0  0  0  0  0  0  0  0
   -3.8817    0.6210   -1.6364 H   0  0  0  0  0  0  0  0  0  0  0  0
   -5.2633    2.0868   -0.2506 H   0  0  0  0  0  0  0  0  0  0  0  0
   -4.1893    1.8800    1.1392 H   0  0  0  0  0  0  0  0  0  0  0  0
   -3.6080    2.7122   -0.3104 H   0  0  0  0  0  0  0  0  0  0  0  0
   -1.6958    0.3082   -2.3336 H   0  0  0  0  0  0  0  0  0  0  0  0
    0.6630   -0.0850   -1.9040 H   0  0  0  0  0  0  0  0  0  0  0  0
    2.0082   -0.5355    1.5591 H   0  0  0  0  0  0  0  0  0  0  0  0
    3.6088    0.5524    1.9696 H   0  0  0  0  0  0  0  0  0  0  0  0
    4.9160    1.0980    0.9130 H   0  0  0  0  0  0  0  0  0  0  0  0
    5.1871   -0.2604    2.0420 H   0  0  0  0  0  0  0  0  0  0  0  0
    6.0164   -1.5360    0.1726 H   0  0  0  0  0  0  0  0  0  0  0  0
    4.8971   -2.0474   -1.1088 H   0  0  0  0  0  0  0  0  0  0  0  0
    5.5575   -0.3921   -1.1268 H   0  0  0  0  0  0  0  0  0  0  0  0
   -0.1256   -0.1690    2.3392 H   0  0  0  0  0  0  0  0  0  0  0  0
   -2.4938    0.2360    1.9056 H   0  0  0  0  0  0  0  0  0  0  0  0
  1  2  1  0
  2  3  1  0
  2  4  1  0
  4  5  2  0
  5  6  1  0
  6  7  2  0
  7  8  1  0
  8  9  1  0
  9 10  2  0
  9 11  1  0
 11 12  1  0
 11 13  1  0
  7 14  1  0
 14 15  2  0
 15  4  1  0
  1 16  1  0
  1 17  1  0
  1 18  1  0
  2 19  1  0
  3 20  1  0
  3 21  1  0
  3 22  1  0
  5 23  1  0
  6 24  1  0
  8 25  1  0
 12 26  1  0
 12 27  1  0
 12 28  1  0
 13 29  1  0
 13 30  1  0
 13 31  1  0
 14 32  1  0
 15 33  1  0
M  END
$$$$
