OMPs000062
     RDKit          3D

 30 32  0  0  0  0  0  0  0  0999 V2000
    1.2810    2.8615    0.8187 N   0  0  0  0  0  0  0  0  0  0  0  0
    0.0406    2.3676    0.5162 C   0  0  0  0  0  0  0  0  0  0  0  0
   -0.8984    3.1599    0.5500 O   0  0  0  0  0  0  0  0  0  0  0  0
   -0.0231    0.9876    0.2886 N   0  0  0  0  0  0  0  0  0  0  0  0
   -1.2910    0.3485    0.0462 C   0  0  0  0  0  0  0  0  0  0  0  0
   -2.2589    1.0006   -0.7428 C   0  0  0  0  0  0  0  0  0  0  0  0
   -3.4995    0.4169   -1.0094 C   0  0  0  0  0  0  0  0  0  0  0  0
   -3.8035   -0.8311   -0.4840 C   0  0  0  0  0  0  0  0  0  0  0  0
   -2.8677   -1.4898    0.3113 C   0  0  0  0  0  0  0  0  0  0  0  0
   -1.6095   -0.9176    0.5788 C   0  0  0  0  0  0  0  0  0  0  0  0
   -0.7451   -1.6442    1.5154 C   0  0  0  0  0  0  0  0  0  0  0  0
    0.5878   -1.7108    1.4345 C   0  0  0  0  0  0  0  0  0  0  0  0
    1.3895   -1.0716    0.3887 C   0  0  0  0  0  0  0  0  0  0  0  0
    2.5379   -1.7616   -0.0419 C   0  0  0  0  0  0  0  0  0  0  0  0
    3.4027   -1.2043   -0.9830 C   0  0  0  0  0  0  0  0  0  0  0  0
    3.1362    0.0560   -1.5004 C   0  0  0  0  0  0  0  0  0  0  0  0
    2.0079    0.7569   -1.0714 C   0  0  0  0  0  0  0  0  0  0  0  0
    1.1212    0.2137   -0.1189 C   0  0  0  0  0  0  0  0  0  0  0  0
    1.8850    2.2434    1.3429 H   0  0  0  0  0  0  0  0  0  0  0  0
    1.2471    3.8135    1.1597 H   0  0  0  0  0  0  0  0  0  0  0  0
   -2.0500    1.9719   -1.1858 H   0  0  0  0  0  0  0  0  0  0  0  0
   -4.2230    0.9432   -1.6265 H   0  0  0  0  0  0  0  0  0  0  0  0
   -4.7690   -1.2879   -0.6837 H   0  0  0  0  0  0  0  0  0  0  0  0
   -3.1297   -2.4601    0.7284 H   0  0  0  0  0  0  0  0  0  0  0  0
   -1.2500   -2.1802    2.3155 H   0  0  0  0  0  0  0  0  0  0  0  0
    1.1302   -2.3017    2.1683 H   0  0  0  0  0  0  0  0  0  0  0  0
    2.7643   -2.7504    0.3527 H   0  0  0  0  0  0  0  0  0  0  0  0
    4.2793   -1.7563   -1.3120 H   0  0  0  0  0  0  0  0  0  0  0  0
    3.7986    0.4948   -2.2421 H   0  0  0  0  0  0  0  0  0  0  0  0
    1.8094    1.7314   -1.5138 H   0  0  0  0  0  0  0  0  0  0  0  0
  1  2  1  0
  2  3  2  0
  2  4  1  0
  4  5  1  0
  5  6  2  0
  6  7  1  0
  7  8  2  0
  8  9  1  0
  9 10  2  0
 10 11  1  0
 11 12  2  0
 12 13  1  0
 13 14  2  0
 14 15  1  0
 15 16  2  0
 16 17  1  0
 17 18  2  0
 18  4  1  0
 10  5  1  0
 18 13  1  0
  1 19  1  0
  1 20  1  0
  6 21  1  0
  7 22  1  0
  8 23  1  0
  9 24  1  0
 11 25  1  0
 12 26  1  0
 14 27  1  0
 15 28  1  0
 16 29  1  0
 17 30  1  0
M  END
$$$$
