OMPs000162
     RDKit          3D

 17 17  0  0  0  0  0  0  0  0999 V2000
   -2.1707    1.7572    0.4392 O   0  0  0  0  0  0  0  0  0  0  0  0
   -1.0431    0.9984    0.2875 C   0  0  0  0  0  0  0  0  0  0  0  0
    0.1228    1.5689    0.8029 C   0  0  0  0  0  0  0  0  0  0  0  0
    1.3420    0.8933    0.7107 C   0  0  0  0  0  0  0  0  0  0  0  0
    1.3913   -0.3650    0.0962 C   0  0  0  0  0  0  0  0  0  0  0  0
    0.2301   -0.9524   -0.4267 C   0  0  0  0  0  0  0  0  0  0  0  0
   -0.9900   -0.2620   -0.3273 C   0  0  0  0  0  0  0  0  0  0  0  0
   -2.1991   -0.8829   -0.8763 N   0  0  0  0  0  0  0  0  0  0  0  0
   -3.2622   -0.2506   -0.7745 O   0  0  0  0  0  0  0  0  0  0  0  0
   -2.0910   -1.9957   -1.4069 O   0  0  0  0  0  0  0  0  0  0  0  0
    2.6745   -1.0753   -0.0005 N   0  0  0  0  0  0  0  0  0  0  0  0
    2.6745   -2.1845   -0.5508 O   0  0  0  0  0  0  0  0  0  0  0  0
    3.6757   -0.5220    0.4736 O   0  0  0  0  0  0  0  0  0  0  0  0
   -2.9474    1.2962    0.0557 H   0  0  0  0  0  0  0  0  0  0  0  0
    0.0803    2.5470    1.2797 H   0  0  0  0  0  0  0  0  0  0  0  0
    2.2363    1.3605    1.1207 H   0  0  0  0  0  0  0  0  0  0  0  0
    0.2762   -1.9311   -0.9031 H   0  0  0  0  0  0  0  0  0  0  0  0
  1  2  1  0
  2  3  2  0
  3  4  1  0
  4  5  2  0
  5  6  1  0
  6  7  2  0
  7  8  1  0
  8  9  1  0
  8 10  2  0
  5 11  1  0
 11 12  1  0
 11 13  2  0
  7  2  1  0
  1 14  1  0
  3 15  1  0
  4 16  1  0
  6 17  1  0
M  CHG  4   8   1   9  -1  11   1  12  -1
M  END
$$$$
