OMPs000120
     RDKit          3D

 15 15  0  0  0  0  0  0  0  0999 V2000
    2.8065    0.6492    0.0037 O   0  0  0  0  0  0  0  0  0  0  0  0
    2.0478   -0.4587    0.0827 C   0  0  0  0  0  0  0  0  0  0  0  0
    2.5520   -1.5615    0.1879 O   0  0  0  0  0  0  0  0  0  0  0  0
    0.5948   -0.1685    0.0270 C   0  0  0  0  0  0  0  0  0  0  0  0
    0.1011    1.1365   -0.0954 C   0  0  0  0  0  0  0  0  0  0  0  0
   -1.2767    1.3609   -0.1438 C   0  0  0  0  0  0  0  0  0  0  0  0
   -2.1630    0.2862   -0.0703 C   0  0  0  0  0  0  0  0  0  0  0  0
   -1.6764   -1.0152    0.0516 C   0  0  0  0  0  0  0  0  0  0  0  0
   -0.3000   -1.2437    0.1004 C   0  0  0  0  0  0  0  0  0  0  0  0
    3.7235    0.3069    0.0524 H   0  0  0  0  0  0  0  0  0  0  0  0
    0.7797    1.9839   -0.1537 H   0  0  0  0  0  0  0  0  0  0  0  0
   -1.6583    2.3746   -0.2388 H   0  0  0  0  0  0  0  0  0  0  0  0
   -3.2353    0.4633   -0.1082 H   0  0  0  0  0  0  0  0  0  0  0  0
   -2.3681   -1.8520    0.1088 H   0  0  0  0  0  0  0  0  0  0  0  0
    0.0725   -2.2619    0.1956 H   0  0  0  0  0  0  0  0  0  0  0  0
  1  2  1  0
  2  3  2  0
  2  4  1  0
  4  5  2  0
  5  6  1  0
  6  7  2  0
  7  8  1  0
  8  9  2  0
  9  4  1  0
  1 10  1  0
  5 11  1  0
  6 12  1  0
  7 13  1  0
  8 14  1  0
  9 15  1  0
M  END
$$$$
