OMPs000066
     RDKit          3D

 30 31  0  0  0  0  0  0  0  0999 V2000
    0.5770    2.7901    0.3961 C   0  0  0  0  0  0  0  0  0  0  0  0
   -0.4540    1.8641    1.0389 C   0  0  0  0  0  0  0  0  0  0  0  0
   -0.7151    0.5054    0.3235 C   0  0  0  0  0  0  0  0  0  0  0  0
   -1.5903   -0.3690    1.2680 C   0  0  0  0  0  0  0  0  0  0  0  0
   -1.5882   -0.2869    2.4958 O   0  0  0  0  0  0  0  0  0  0  0  0
   -2.3679   -1.3265    0.6714 N   0  0  0  0  0  0  0  0  0  0  0  0
   -2.2950   -1.5671   -0.7259 C   0  0  0  0  0  0  0  0  0  0  0  0
   -2.3073   -0.3159   -1.3989 N   0  0  0  0  0  0  0  0  0  0  0  0
   -1.5348    0.7335   -0.9721 C   0  0  0  0  0  0  0  0  0  0  0  0
   -1.4987    1.7536   -1.6572 O   0  0  0  0  0  0  0  0  0  0  0  0
    0.6285   -0.2161    0.0494 C   0  0  0  0  0  0  0  0  0  0  0  0
    1.2139   -0.2355   -1.2304 C   0  0  0  0  0  0  0  0  0  0  0  0
    2.4318   -0.8827   -1.4558 C   0  0  0  0  0  0  0  0  0  0  0  0
    3.0954   -1.5116   -0.4069 C   0  0  0  0  0  0  0  0  0  0  0  0
    2.5479   -1.4848    0.8716 C   0  0  0  0  0  0  0  0  0  0  0  0
    1.3312   -0.8379    1.0998 C   0  0  0  0  0  0  0  0  0  0  0  0
    0.3354    3.0281   -0.6420 H   0  0  0  0  0  0  0  0  0  0  0  0
    1.5815    2.3577    0.4276 H   0  0  0  0  0  0  0  0  0  0  0  0
    0.6157    3.7350    0.9490 H   0  0  0  0  0  0  0  0  0  0  0  0
   -0.1219    1.6886    2.0709 H   0  0  0  0  0  0  0  0  0  0  0  0
   -1.4030    2.4113    1.1209 H   0  0  0  0  0  0  0  0  0  0  0  0
   -2.8459   -1.9662    1.2925 H   0  0  0  0  0  0  0  0  0  0  0  0
   -1.3776   -2.1123   -0.9647 H   0  0  0  0  0  0  0  0  0  0  0  0
   -3.1666   -2.1491   -1.0356 H   0  0  0  0  0  0  0  0  0  0  0  0
   -2.7669   -0.2025   -2.2931 H   0  0  0  0  0  0  0  0  0  0  0  0
    0.7457    0.2681   -2.0745 H   0  0  0  0  0  0  0  0  0  0  0  0
    2.8678   -0.8839   -2.4518 H   0  0  0  0  0  0  0  0  0  0  0  0
    4.0455   -2.0091   -0.5826 H   0  0  0  0  0  0  0  0  0  0  0  0
    3.0715   -1.9594    1.6978 H   0  0  0  0  0  0  0  0  0  0  0  0
    0.9444   -0.8192    2.1183 H   0  0  0  0  0  0  0  0  0  0  0  0
  1  2  1  0
  2  3  1  0
  3  4  1  0
  4  5  2  0
  4  6  1  0
  6  7  1  0
  7  8  1  0
  8  9  1  0
  9 10  2  0
  3 11  1  0
 11 12  2  0
 12 13  1  0
 13 14  2  0
 14 15  1  0
 15 16  2  0
  9  3  1  0
 16 11  1  0
  1 17  1  0
  1 18  1  0
  1 19  1  0
  2 20  1  0
  2 21  1  0
  6 22  1  0
  7 23  1  0
  7 24  1  0
  8 25  1  0
 12 26  1  0
 13 27  1  0
 14 28  1  0
 15 29  1  0
 16 30  1  0
M  END
$$$$
