OMPs000118
     RDKit          3D

 13 12  0  0  0  0  0  0  0  0999 V2000
   -1.9034    0.0156    0.0886 C   0  0  0  0  0  0  0  0  0  0  0  0
   -0.4863   -0.5274    0.1199 C   0  0  0  0  0  0  0  0  0  0  0  0
    0.5569    0.5469   -0.1268 C   0  0  0  0  0  0  0  0  0  0  0  0
    1.9933    0.0925   -0.1127 C   0  0  0  0  0  0  0  0  0  0  0  0
    0.2665    1.7251   -0.3285 O   0  0  0  0  0  0  0  0  0  0  0  0
   -2.6237   -0.7880    0.2702 H   0  0  0  0  0  0  0  0  0  0  0  0
   -2.0472    0.7839    0.8554 H   0  0  0  0  0  0  0  0  0  0  0  0
   -2.1308    0.4657   -0.8835 H   0  0  0  0  0  0  0  0  0  0  0  0
   -0.3722   -1.2975   -0.6502 H   0  0  0  0  0  0  0  0  0  0  0  0
   -0.2882   -0.9775    1.0983 H   0  0  0  0  0  0  0  0  0  0  0  0
    2.2338   -0.3309    0.8656 H   0  0  0  0  0  0  0  0  0  0  0  0
    2.1493   -0.6533   -0.8959 H   0  0  0  0  0  0  0  0  0  0  0  0
    2.6520    0.9450   -0.3003 H   0  0  0  0  0  0  0  0  0  0  0  0
  1  2  1  0
  2  3  1  0
  3  4  1  0
  3  5  2  0
  1  6  1  0
  1  7  1  0
  1  8  1  0
  2  9  1  0
  2 10  1  0
  4 11  1  0
  4 12  1  0
  4 13  1  0
M  END
$$$$
