OMPs000159
     RDKit          3D

 13 13  0  0  0  0  0  0  0  0999 V2000
    2.5019    0.1232   -0.0335 O   0  0  0  0  0  0  0  0  0  0  0  0
    1.1371    0.0088   -0.0206 C   0  0  0  0  0  0  0  0  0  0  0  0
    0.6116   -1.2734   -0.1559 C   0  0  0  0  0  0  0  0  0  0  0  0
   -0.7698   -1.4574   -0.1505 C   0  0  0  0  0  0  0  0  0  0  0  0
   -1.6189   -0.3575   -0.0098 C   0  0  0  0  0  0  0  0  0  0  0  0
   -1.0887    0.9311    0.1261 C   0  0  0  0  0  0  0  0  0  0  0  0
   -2.2021    2.2421    0.2958 Cl  0  0  0  0  0  0  0  0  0  0  0  0
    0.2978    1.1204    0.1213 C   0  0  0  0  0  0  0  0  0  0  0  0
    1.0172    2.6868    0.2851 Cl  0  0  0  0  0  0  0  0  0  0  0  0
    2.7167    1.0697    0.0697 H   0  0  0  0  0  0  0  0  0  0  0  0
    1.2783   -2.1252   -0.2650 H   0  0  0  0  0  0  0  0  0  0  0  0
   -1.1851   -2.4571   -0.2559 H   0  0  0  0  0  0  0  0  0  0  0  0
   -2.6958   -0.5115   -0.0068 H   0  0  0  0  0  0  0  0  0  0  0  0
  1  2  1  0
  2  3  2  0
  3  4  1  0
  4  5  2  0
  5  6  1  0
  6  7  1  0
  6  8  2  0
  8  9  1  0
  8  2  1  0
  1 10  1  0
  3 11  1  0
  4 12  1  0
  5 13  1  0
M  END
$$$$
