OMPs000174
     RDKit          3D

 26 29  0  0  0  0  0  0  0  0999 V2000
   -3.4254    0.6947    0.3666 C   0  0  0  0  0  0  0  0  0  0  0  0
   -2.4856    1.7078    0.5537 C   0  0  0  0  0  0  0  0  0  0  0  0
   -1.1149    1.4464    0.4110 C   0  0  0  0  0  0  0  0  0  0  0  0
   -0.1559    2.4516    0.5952 C   0  0  0  0  0  0  0  0  0  0  0  0
    1.2061    2.1754    0.4494 C   0  0  0  0  0  0  0  0  0  0  0  0
    1.6444    0.8867    0.1157 C   0  0  0  0  0  0  0  0  0  0  0  0
    3.0079    0.5936   -0.0342 C   0  0  0  0  0  0  0  0  0  0  0  0
    3.4254   -0.6947   -0.3666 C   0  0  0  0  0  0  0  0  0  0  0  0
    2.4856   -1.7078   -0.5537 C   0  0  0  0  0  0  0  0  0  0  0  0
    1.1149   -1.4464   -0.4110 C   0  0  0  0  0  0  0  0  0  0  0  0
    0.1559   -2.4516   -0.5952 C   0  0  0  0  0  0  0  0  0  0  0  0
   -1.2061   -2.1754   -0.4494 C   0  0  0  0  0  0  0  0  0  0  0  0
   -1.6444   -0.8867   -0.1157 C   0  0  0  0  0  0  0  0  0  0  0  0
   -3.0079   -0.5936    0.0342 C   0  0  0  0  0  0  0  0  0  0  0  0
   -0.6906    0.1401    0.0739 C   0  0  0  0  0  0  0  0  0  0  0  0
    0.6906   -0.1401   -0.0739 C   0  0  0  0  0  0  0  0  0  0  0  0
   -4.4848    0.9096    0.4800 H   0  0  0  0  0  0  0  0  0  0  0  0
   -2.8318    2.7059    0.8126 H   0  0  0  0  0  0  0  0  0  0  0  0
   -0.4613    3.4627    0.8548 H   0  0  0  0  0  0  0  0  0  0  0  0
    1.9235    2.9790    0.5995 H   0  0  0  0  0  0  0  0  0  0  0  0
    3.7569    1.3696    0.1075 H   0  0  0  0  0  0  0  0  0  0  0  0
    4.4848   -0.9096   -0.4800 H   0  0  0  0  0  0  0  0  0  0  0  0
    2.8318   -2.7059   -0.8126 H   0  0  0  0  0  0  0  0  0  0  0  0
    0.4613   -3.4627   -0.8547 H   0  0  0  0  0  0  0  0  0  0  0  0
   -1.9235   -2.9790   -0.5995 H   0  0  0  0  0  0  0  0  0  0  0  0
   -3.7569   -1.3696   -0.1075 H   0  0  0  0  0  0  0  0  0  0  0  0
  1  2  2  0
  2  3  1  0
  3  4  2  0
  4  5  1  0
  5  6  2  0
  6  7  1  0
  7  8  2  0
  8  9  1  0
  9 10  2  0
 10 11  1  0
 11 12  2  0
 12 13  1  0
 13 14  2  0
 13 15  1  0
 15 16  2  0
 14  1  1  0
 15  3  1  0
 16  6  1  0
 16 10  1  0
  1 17  1  0
  2 18  1  0
  4 19  1  0
  5 20  1  0
  7 21  1  0
  8 22  1  0
  9 23  1  0
 11 24  1  0
 12 25  1  0
 14 26  1  0
M  END
$$$$
