OMPs000034
     RDKit          3D

 12 11  0  0  0  0  0  0  0  0999 V2000
    1.2358   -0.1362    0.4275 C   0  0  0  0  0  0  0  0  0  0  0  0
    0.0867    0.2774   -0.4792 C   0  0  0  0  0  0  0  0  0  0  0  0
   -1.1442   -0.5904   -0.2661 C   0  0  0  0  0  0  0  0  0  0  0  0
   -0.2481    1.6375   -0.2210 O   0  0  0  0  0  0  0  0  0  0  0  0
    2.1003    0.5175    0.2692 H   0  0  0  0  0  0  0  0  0  0  0  0
    0.9590   -0.0408    1.4833 H   0  0  0  0  0  0  0  0  0  0  0  0
    1.5398   -1.1699    0.2373 H   0  0  0  0  0  0  0  0  0  0  0  0
    0.4042    0.2107   -1.5250 H   0  0  0  0  0  0  0  0  0  0  0  0
   -1.9619   -0.2577   -0.9145 H   0  0  0  0  0  0  0  0  0  0  0  0
   -0.9317   -1.6416   -0.4829 H   0  0  0  0  0  0  0  0  0  0  0  0
   -1.5085   -0.5117    0.7642 H   0  0  0  0  0  0  0  0  0  0  0  0
   -0.5314    1.7050    0.7069 H   0  0  0  0  0  0  0  0  0  0  0  0
  1  2  1  0
  2  3  1  0
  2  4  1  0
  1  5  1  0
  1  6  1  0
  1  7  1  0
  2  8  1  0
  3  9  1  0
  3 10  1  0
  3 11  1  0
  4 12  1  0
M  END
$$$$
