OMPs000040
     RDKit          3D

 23 23  0  0  0  0  0  0  0  0999 V2000
    4.3238   -0.3670   -0.1544 C   0  0  0  0  0  0  0  0  0  0  0  0
    3.4307    0.0146    0.8847 O   0  0  0  0  0  0  0  0  0  0  0  0
    2.0988    0.0279    0.5779 C   0  0  0  0  0  0  0  0  0  0  0  0
    1.5350   -0.2945   -0.6547 C   0  0  0  0  0  0  0  0  0  0  0  0
    0.1451   -0.2392   -0.8359 C   0  0  0  0  0  0  0  0  0  0  0  0
   -0.6961    0.1381    0.2111 C   0  0  0  0  0  0  0  0  0  0  0  0
   -2.0999    0.2187    0.1080 N   0  0  0  0  0  0  0  0  0  0  0  0
   -2.8809   -0.0599   -0.9991 C   0  0  0  0  0  0  0  0  0  0  0  0
   -4.3509    0.1382   -0.7236 C   0  0  0  0  0  0  0  0  0  0  0  0
   -2.4970   -0.4502   -2.0958 O   0  0  0  0  0  0  0  0  0  0  0  0
   -0.1255    0.4616    1.4467 C   0  0  0  0  0  0  0  0  0  0  0  0
    1.2603    0.4062    1.6262 C   0  0  0  0  0  0  0  0  0  0  0  0
    4.2718    0.3316   -0.9961 H   0  0  0  0  0  0  0  0  0  0  0  0
    5.3407   -0.3278    0.2479 H   0  0  0  0  0  0  0  0  0  0  0  0
    4.1342   -1.3950   -0.4804 H   0  0  0  0  0  0  0  0  0  0  0  0
    2.1418   -0.5944   -1.5026 H   0  0  0  0  0  0  0  0  0  0  0  0
   -0.2455   -0.4989   -1.8150 H   0  0  0  0  0  0  0  0  0  0  0  0
   -2.5870    0.5071    0.9469 H   0  0  0  0  0  0  0  0  0  0  0  0
   -4.5146    1.0047   -0.0764 H   0  0  0  0  0  0  0  0  0  0  0  0
   -4.8763    0.3161   -1.6664 H   0  0  0  0  0  0  0  0  0  0  0  0
   -4.7540   -0.7590   -0.2468 H   0  0  0  0  0  0  0  0  0  0  0  0
   -0.7436    0.7610    2.2885 H   0  0  0  0  0  0  0  0  0  0  0  0
    1.6894    0.6602    2.5924 H   0  0  0  0  0  0  0  0  0  0  0  0
  1  2  1  0
  2  3  1  0
  3  4  2  0
  4  5  1  0
  5  6  2  0
  6  7  1  0
  7  8  1  0
  8  9  1  0
  8 10  2  0
  6 11  1  0
 11 12  2  0
 12  3  1  0
  1 13  1  0
  1 14  1  0
  1 15  1  0
  4 16  1  0
  5 17  1  0
  7 18  1  0
  9 19  1  0
  9 20  1  0
  9 21  1  0
 11 22  1  0
 12 23  1  0
M  END
$$$$
