OMPs000089
     RDKit          3D

 46 49  0  0  0  0  0  0  0  0999 V2000
   -1.6175    0.8736   -1.9754 C   0  0  0  0  0  0  0  0  0  0  0  0
   -1.9176    0.7423   -0.4520 C   0  0  2  0  0  0  0  0  0  0  0  0
   -1.2196    1.9063    0.2740 C   0  0  0  0  0  0  0  0  0  0  0  0
    0.3160    1.7774    0.2361 C   0  0  0  0  0  0  0  0  0  0  0  0
    0.8312    0.3995    0.7291 C   0  0  1  0  0  0  0  0  0  0  0  0
    0.0959   -0.7687    0.0056 C   0  0  1  0  0  0  0  0  0  0  0  0
    0.5849   -2.0982    0.5854 C   0  0  0  0  0  0  0  0  0  0  0  0
    2.0630   -2.2928    0.2614 C   0  0  0  0  0  0  0  0  0  0  0  0
    2.9090   -1.0647    0.4950 C   0  0  0  0  0  0  0  0  0  0  0  0
    4.3059   -1.2211    0.4803 C   0  0  0  0  0  0  0  0  0  0  0  0
    5.1387   -0.1279    0.6701 C   0  0  0  0  0  0  0  0  0  0  0  0
    6.4851   -0.3397    0.6499 O   0  0  0  0  0  0  0  0  0  0  0  0
    4.6062    1.1349    0.8779 C   0  0  0  0  0  0  0  0  0  0  0  0
    3.2187    1.3031    0.8861 C   0  0  0  0  0  0  0  0  0  0  0  0
    2.3471    0.2188    0.6737 C   0  0  0  0  0  0  0  0  0  0  0  0
   -1.4147   -0.5813    0.1670 C   0  0  2  0  0  0  0  0  0  0  0  0
   -2.3513   -1.6313   -0.4261 C   0  0  0  0  0  0  0  0  0  0  0  0
   -3.7017   -0.9045   -0.5938 C   0  0  0  0  0  0  0  0  0  0  0  0
   -3.4538    0.5864   -0.2418 C   0  0  2  0  0  0  0  0  0  0  0  0
   -4.1913    1.4247   -1.1200 O   0  0  0  0  0  0  0  0  0  0  0  0
   -3.9062    0.8651    1.1390 C   0  0  0  0  0  0  0  0  0  0  0  0
   -4.2897    1.0921    2.2549 C   0  0  0  0  0  0  0  0  0  0  0  0
   -2.0991    0.0894   -2.5677 H   0  0  0  0  0  0  0  0  0  0  0  0
   -0.5503    0.8295   -2.2063 H   0  0  0  0  0  0  0  0  0  0  0  0
   -1.9805    1.8351   -2.3573 H   0  0  0  0  0  0  0  0  0  0  0  0
   -1.5195    2.8672   -0.1613 H   0  0  0  0  0  0  0  0  0  0  0  0
   -1.5165    1.9398    1.3288 H   0  0  0  0  0  0  0  0  0  0  0  0
    0.6878    1.9751   -0.7762 H   0  0  0  0  0  0  0  0  0  0  0  0
    0.7174    2.5790    0.8670 H   0  0  0  0  0  0  0  0  0  0  0  0
    0.5775    0.3397    1.7990 H   0  0  0  0  0  0  0  0  0  0  0  0
    0.3544   -0.7621   -1.0610 H   0  0  0  0  0  0  0  0  0  0  0  0
    0.4357   -2.1119    1.6728 H   0  0  0  0  0  0  0  0  0  0  0  0
    0.0200   -2.9429    0.1758 H   0  0  0  0  0  0  0  0  0  0  0  0
    2.1631   -2.5736   -0.7950 H   0  0  0  0  0  0  0  0  0  0  0  0
    2.4460   -3.1274    0.8611 H   0  0  0  0  0  0  0  0  0  0  0  0
    4.7479   -2.2018    0.3213 H   0  0  0  0  0  0  0  0  0  0  0  0
    6.9318    0.5111    0.7892 H   0  0  0  0  0  0  0  0  0  0  0  0
    5.2451    1.9970    1.0391 H   0  0  0  0  0  0  0  0  0  0  0  0
    2.8344    2.3024    1.0700 H   0  0  0  0  0  0  0  0  0  0  0  0
   -1.6129   -0.5673    1.2506 H   0  0  0  0  0  0  0  0  0  0  0  0
   -2.4510   -2.5020    0.2303 H   0  0  0  0  0  0  0  0  0  0  0  0
   -1.9904   -1.9898   -1.3968 H   0  0  0  0  0  0  0  0  0  0  0  0
   -4.4636   -1.3616    0.0492 H   0  0  0  0  0  0  0  0  0  0  0  0
   -4.0574   -1.0189   -1.6251 H   0  0  0  0  0  0  0  0  0  0  0  0
   -5.1316    1.3010   -0.9057 H   0  0  0  0  0  0  0  0  0  0  0  0
   -4.6266    1.2987    3.2447 H   0  0  0  0  0  0  0  0  0  0  0  0
  2  1  1  6
  2  3  1  0
  3  4  1  0
  4  5  1  0
  5  6  1  0
  6  7  1  0
  7  8  1  0
  8  9  1  0
  9 10  2  0
 10 11  1  0
 11 12  1  0
 11 13  2  0
 13 14  1  0
 14 15  2  0
  6 16  1  0
 16 17  1  0
 17 18  1  0
 18 19  1  0
 19 20  1  0
 19 21  1  1
 21 22  3  0
 16  2  1  0
 19  2  1  0
 15  5  1  0
 15  9  1  0
  1 23  1  0
  1 24  1  0
  1 25  1  0
  3 26  1  0
  3 27  1  0
  4 28  1  0
  4 29  1  0
  5 30  1  1
  6 31  1  6
  7 32  1  0
  7 33  1  0
  8 34  1  0
  8 35  1  0
 10 36  1  0
 12 37  1  0
 13 38  1  0
 14 39  1  0
 16 40  1  1
 17 41  1  0
 17 42  1  0
 18 43  1  0
 18 44  1  0
 20 45  1  0
 22 46  1  0
M  END
$$$$
