OMPs000152
     RDKit          3D

 23 22  0  0  0  0  0  0  0  0999 V2000
   -4.3114   -0.0934   -0.1385 O   0  0  0  0  0  0  0  0  0  0  0  0
   -3.3019   -0.8272   -0.6613 C   0  0  0  0  0  0  0  0  0  0  0  0
   -3.5445   -1.9325   -1.1244 O   0  0  0  0  0  0  0  0  0  0  0  0
   -1.9434   -0.1520   -0.5948 C   0  0  0  0  0  0  0  0  0  0  0  0
   -2.0482    1.2047   -0.4862 F   0  0  0  0  0  0  0  0  0  0  0  0
   -1.2301   -0.3753   -1.7354 F   0  0  0  0  0  0  0  0  0  0  0  0
   -1.2055   -0.7138    0.6027 C   0  0  0  0  0  0  0  0  0  0  0  0
   -0.9128   -2.0307    0.3976 F   0  0  0  0  0  0  0  0  0  0  0  0
   -2.0294   -0.6993    1.6989 F   0  0  0  0  0  0  0  0  0  0  0  0
    0.0635    0.0410    0.9671 C   0  0  0  0  0  0  0  0  0  0  0  0
   -0.2496    1.3032    1.3763 F   0  0  0  0  0  0  0  0  0  0  0  0
    0.6035   -0.5676    2.0679 F   0  0  0  0  0  0  0  0  0  0  0  0
    1.1039    0.1044   -0.1349 C   0  0  0  0  0  0  0  0  0  0  0  0
    1.3032   -1.1358   -0.6534 F   0  0  0  0  0  0  0  0  0  0  0  0
    0.6392    0.8716   -1.1564 F   0  0  0  0  0  0  0  0  0  0  0  0
    2.4079    0.6763    0.3761 C   0  0  0  0  0  0  0  0  0  0  0  0
    2.9127   -0.0979    1.3781 F   0  0  0  0  0  0  0  0  0  0  0  0
    2.2063    1.9095    0.9208 F   0  0  0  0  0  0  0  0  0  0  0  0
    3.4073    0.7649   -0.7605 C   0  0  0  0  0  0  0  0  0  0  0  0
    2.9804    1.5702   -1.7607 F   0  0  0  0  0  0  0  0  0  0  0  0
    4.5929    1.2685   -0.3344 F   0  0  0  0  0  0  0  0  0  0  0  0
    3.6720   -0.4447   -1.3068 F   0  0  0  0  0  0  0  0  0  0  0  0
   -5.1158   -0.6442   -0.2549 H   0  0  0  0  0  0  0  0  0  0  0  0
  1  2  1  0
  2  3  2  0
  2  4  1  0
  4  5  1  0
  4  6  1  0
  4  7  1  0
  7  8  1  0
  7  9  1  0
  7 10  1  0
 10 11  1  0
 10 12  1  0
 10 13  1  0
 13 14  1  0
 13 15  1  0
 13 16  1  0
 16 17  1  0
 16 18  1  0
 16 19  1  0
 19 20  1  0
 19 21  1  0
 19 22  1  0
  1 23  1  0
M  END
$$$$
