OMPs000219
     RDKit          3D

 40 43  0  0  0  0  0  0  0  0999 V2000
   -2.0806    1.5161    1.5686 C   0  0  0  0  0  0  0  0  0  0  0  0
   -2.3854    0.3736    0.5811 C   0  0  2  0  0  0  0  0  0  0  0  0
   -2.1159   -0.9926    1.2140 C   0  0  0  0  0  0  0  0  0  0  0  0
   -0.6046   -1.2264    1.4183 C   0  0  0  0  0  0  0  0  0  0  0  0
    0.2496   -0.9764    0.1426 C   0  0  1  0  0  0  0  0  0  0  0  0
   -0.1458    0.3473   -0.5152 C   0  0  0  0  0  0  0  0  0  0  0  0
    0.7406    1.3096   -0.8131 C   0  0  0  0  0  0  0  0  0  0  0  0
    2.2058    1.2087   -0.5239 C   0  0  0  0  0  0  0  0  0  0  0  0
    2.6507   -0.0869    0.1096 C   0  0  0  0  0  0  0  0  0  0  0  0
    4.0212   -0.2603    0.3791 C   0  0  0  0  0  0  0  0  0  0  0  0
    4.4800   -1.4489    0.9357 C   0  0  0  0  0  0  0  0  0  0  0  0
    5.8016   -1.6457    1.2058 O   0  0  0  0  0  0  0  0  0  0  0  0
    3.6000   -2.4788    1.2261 C   0  0  0  0  0  0  0  0  0  0  0  0
    2.2393   -2.3165    0.9653 C   0  0  0  0  0  0  0  0  0  0  0  0
    1.7416   -1.1170    0.4214 C   0  0  0  0  0  0  0  0  0  0  0  0
   -1.6260    0.4418   -0.7610 C   0  0  2  0  0  0  0  0  0  0  0  0
   -2.2753    1.6153   -1.4941 C   0  0  0  0  0  0  0  0  0  0  0  0
   -3.7719    1.3699   -1.2600 C   0  0  0  0  0  0  0  0  0  0  0  0
   -3.7886    0.6036    0.0514 C   0  0  0  0  0  0  0  0  0  0  0  0
   -4.8128    0.2392    0.6138 O   0  0  0  0  0  0  0  0  0  0  0  0
   -2.6471    1.3767    2.4971 H   0  0  0  0  0  0  0  0  0  0  0  0
   -2.3716    2.4964    1.1755 H   0  0  0  0  0  0  0  0  0  0  0  0
   -1.0209    1.5709    1.8341 H   0  0  0  0  0  0  0  0  0  0  0  0
   -2.5202   -1.7898    0.5763 H   0  0  0  0  0  0  0  0  0  0  0  0
   -2.6358   -1.0838    2.1755 H   0  0  0  0  0  0  0  0  0  0  0  0
   -0.4707   -2.2568    1.7689 H   0  0  0  0  0  0  0  0  0  0  0  0
   -0.2457   -0.5846    2.2336 H   0  0  0  0  0  0  0  0  0  0  0  0
    0.0045   -1.7649   -0.5848 H   0  0  0  0  0  0  0  0  0  0  0  0
    0.4176    2.2368   -1.2779 H   0  0  0  0  0  0  0  0  0  0  0  0
    2.7482    1.3398   -1.4682 H   0  0  0  0  0  0  0  0  0  0  0  0
    2.4813    2.0362    0.1412 H   0  0  0  0  0  0  0  0  0  0  0  0
    4.7167    0.5397    0.1419 H   0  0  0  0  0  0  0  0  0  0  0  0
    6.2910   -0.8452    0.9567 H   0  0  0  0  0  0  0  0  0  0  0  0
    3.9696   -3.4075    1.6510 H   0  0  0  0  0  0  0  0  0  0  0  0
    1.5687   -3.1435    1.1870 H   0  0  0  0  0  0  0  0  0  0  0  0
   -1.8803   -0.4471   -1.3644 H   0  0  0  0  0  0  0  0  0  0  0  0
   -2.0340    1.6249   -2.5619 H   0  0  0  0  0  0  0  0  0  0  0  0
   -1.9739    2.5824   -1.0767 H   0  0  0  0  0  0  0  0  0  0  0  0
   -4.1951    0.7366   -2.0450 H   0  0  0  0  0  0  0  0  0  0  0  0
   -4.3255    2.3073   -1.1744 H   0  0  0  0  0  0  0  0  0  0  0  0
  2  1  1  1
  2  3  1  0
  3  4  1  0
  4  5  1  0
  5  6  1  0
  6  7  2  0
  7  8  1  0
  8  9  1  0
  9 10  2  0
 10 11  1  0
 11 12  1  0
 11 13  2  0
 13 14  1  0
 14 15  2  0
  6 16  1  0
 16 17  1  0
 17 18  1  0
 18 19  1  0
 19 20  2  0
 16  2  1  0
 19  2  1  0
 15  5  1  0
 15  9  1  0
  1 21  1  0
  1 22  1  0
  1 23  1  0
  3 24  1  0
  3 25  1  0
  4 26  1  0
  4 27  1  0
  5 28  1  6
  7 29  1  0
  8 30  1  0
  8 31  1  0
 10 32  1  0
 12 33  1  0
 13 34  1  0
 14 35  1  0
 16 36  1  6
 17 37  1  0
 17 38  1  0
 18 39  1  0
 18 40  1  0
M  END
$$$$
