OMPs000125
     RDKit          3D

 19 18  0  0  0  0  0  0  0  0999 V2000
   -1.8441   -0.3426   -1.1611 C   0  0  0  0  0  0  0  0  0  0  0  0
   -0.7141   -0.3072   -0.1308 C   0  0  0  0  0  0  0  0  0  0  0  0
   -1.2925   -0.0888    1.2688 C   0  0  0  0  0  0  0  0  0  0  0  0
    0.2964    0.7854   -0.4995 C   0  0  0  0  0  0  0  0  0  0  0  0
    1.5457    0.7478    0.3591 C   0  0  0  0  0  0  0  0  0  0  0  0
    1.7614    1.6099    1.2112 O   0  0  0  0  0  0  0  0  0  0  0  0
    2.5022   -0.3961    0.1462 C   0  0  0  0  0  0  0  0  0  0  0  0
   -2.5627   -1.1343   -0.9238 H   0  0  0  0  0  0  0  0  0  0  0  0
   -2.3858    0.6091   -1.1907 H   0  0  0  0  0  0  0  0  0  0  0  0
   -1.4501   -0.5401   -2.1637 H   0  0  0  0  0  0  0  0  0  0  0  0
   -0.2175   -1.2849   -0.1434 H   0  0  0  0  0  0  0  0  0  0  0  0
   -1.7902    0.8839    1.3462 H   0  0  0  0  0  0  0  0  0  0  0  0
   -0.5091   -0.1313    2.0322 H   0  0  0  0  0  0  0  0  0  0  0  0
   -2.0280   -0.8641    1.5094 H   0  0  0  0  0  0  0  0  0  0  0  0
    0.6140    0.6859   -1.5444 H   0  0  0  0  0  0  0  0  0  0  0  0
   -0.1561    1.7802   -0.4047 H   0  0  0  0  0  0  0  0  0  0  0  0
    2.7086   -0.5122   -0.9206 H   0  0  0  0  0  0  0  0  0  0  0  0
    2.0767   -1.3168    0.5511 H   0  0  0  0  0  0  0  0  0  0  0  0
    3.4451   -0.1838    0.6582 H   0  0  0  0  0  0  0  0  0  0  0  0
  1  2  1  0
  2  3  1  0
  2  4  1  0
  4  5  1  0
  5  6  2  0
  5  7  1  0
  1  8  1  0
  1  9  1  0
  1 10  1  0
  2 11  1  0
  3 12  1  0
  3 13  1  0
  3 14  1  0
  4 15  1  0
  4 16  1  0
  7 17  1  0
  7 18  1  0
  7 19  1  0
M  END
$$$$
