OMPs000198
     RDKit          3D

  8  7  0  0  0  0  0  0  0  0999 V2000
    1.3267    0.5859   -0.6913 O   0  0  0  0  0  0  0  0  0  0  0  0
    0.5977   -0.2540    0.0883 C   0  0  0  0  0  0  0  0  0  0  0  0
    1.1963   -1.1487    0.6707 O   0  0  0  0  0  0  0  0  0  0  0  0
   -0.9011    0.0502    0.1238 C   0  0  0  0  0  0  0  0  0  0  0  0
   -1.7850   -1.2533    1.2891 Br  0  0  0  0  0  0  0  0  0  0  0  0
   -1.5714   -0.1026   -1.7090 Br  0  0  0  0  0  0  0  0  0  0  0  0
   -1.1126    1.8613    0.8357 Br  0  0  0  0  0  0  0  0  0  0  0  0
    2.2494    0.2612   -0.6071 H   0  0  0  0  0  0  0  0  0  0  0  0
  1  2  1  0
  2  3  2  0
  2  4  1  0
  4  5  1  0
  4  6  1  0
  4  7  1  0
  1  8  1  0
M  END
$$$$
