OMPs000207
     RDKit          3D

 16 16  0  0  0  0  0  0  0  0999 V2000
   -2.6468    0.4769   -0.4074 N   0  0  0  0  0  0  0  0  0  0  0  0
   -1.8528   -0.5197    0.0840 C   0  0  0  0  0  0  0  0  0  0  0  0
   -2.3037   -1.5733    0.5082 O   0  0  0  0  0  0  0  0  0  0  0  0
   -0.4059   -0.2594    0.0746 C   0  0  0  0  0  0  0  0  0  0  0  0
    0.4141   -0.9190   -0.8491 C   0  0  0  0  0  0  0  0  0  0  0  0
   -0.2118   -1.9907   -2.0517 Cl  0  0  0  0  0  0  0  0  0  0  0  0
    1.7952   -0.6946   -0.8423 C   0  0  0  0  0  0  0  0  0  0  0  0
    2.3603    0.1814    0.0841 C   0  0  0  0  0  0  0  0  0  0  0  0
    1.5452    0.8373    1.0061 C   0  0  0  0  0  0  0  0  0  0  0  0
    0.1633    0.6180    1.0058 C   0  0  0  0  0  0  0  0  0  0  0  0
   -0.7767    1.4615    2.1858 Cl  0  0  0  0  0  0  0  0  0  0  0  0
   -2.2991    1.3825   -0.6895 H   0  0  0  0  0  0  0  0  0  0  0  0
   -3.6483    0.3358   -0.3674 H   0  0  0  0  0  0  0  0  0  0  0  0
    2.4373   -1.2024   -1.5593 H   0  0  0  0  0  0  0  0  0  0  0  0
    3.4351    0.3504    0.0889 H   0  0  0  0  0  0  0  0  0  0  0  0
    1.9944    1.5153    1.7292 H   0  0  0  0  0  0  0  0  0  0  0  0
  1  2  1  0
  2  3  2  0
  2  4  1  0
  4  5  2  0
  5  6  1  0
  5  7  1  0
  7  8  2  0
  8  9  1  0
  9 10  2  0
 10 11  1  0
 10  4  1  0
  1 12  1  0
  1 13  1  0
  7 14  1  0
  8 15  1  0
  9 16  1  0
M  END
$$$$
