OMPs000193
     RDKit          3D

  8  7  0  0  0  0  0  0  0  0999 V2000
    1.4176    0.5767    0.4880 O   0  0  0  0  0  0  0  0  0  0  0  0
    0.5515   -0.1658   -0.2443 C   0  0  0  0  0  0  0  0  0  0  0  0
    0.9724   -0.7841   -1.2099 O   0  0  0  0  0  0  0  0  0  0  0  0
   -0.8680   -0.0833    0.2700 C   0  0  0  0  0  0  0  0  0  0  0  0
   -1.7966   -1.5173   -0.1858 Cl  0  0  0  0  0  0  0  0  0  0  0  0
   -1.6715    1.5032   -0.5069 Br  0  0  0  0  0  0  0  0  0  0  0  0
    2.2785    0.4577    0.0306 H   0  0  0  0  0  0  0  0  0  0  0  0
   -0.8839    0.0129    1.3584 H   0  0  0  0  0  0  0  0  0  0  0  0
  1  2  1  0
  2  3  2  0
  2  4  1  0
  4  5  1  0
  4  6  1  0
  1  7  1  0
  4  8  1  0
M  END
$$$$
