OMPs000032
     RDKit          3D

 26 25  0  0  0  0  0  0  0  0999 V2000
    3.8710    0.0452    0.6709 O   0  0  0  0  0  0  0  0  0  0  0  0
    2.9438   -0.6592   -0.1588 C   0  0  0  0  0  0  0  0  0  0  0  0
    1.5532   -0.0213   -0.0346 C   0  0  1  0  0  0  0  0  0  0  0  0
    1.6493    1.3759   -0.3758 O   0  0  0  0  0  0  0  0  0  0  0  0
    0.5038   -0.7168   -0.9227 C   0  0  1  0  0  0  0  0  0  0  0  0
    0.4233   -2.1056   -0.6010 O   0  0  0  0  0  0  0  0  0  0  0  0
   -0.8943   -0.0438   -0.8607 C   0  0  2  0  0  0  0  0  0  0  0  0
   -0.8553    1.2871   -1.3953 O   0  0  0  0  0  0  0  0  0  0  0  0
   -1.5202   -0.0180    0.5560 C   0  0  2  0  0  0  0  0  0  0  0  0
   -1.4418   -1.3184    1.1490 O   0  0  0  0  0  0  0  0  0  0  0  0
   -2.9810    0.4628    0.5035 C   0  0  0  0  0  0  0  0  0  0  0  0
   -3.0784    1.8260    0.1140 O   0  0  0  0  0  0  0  0  0  0  0  0
    3.5833    0.9773    0.6963 H   0  0  0  0  0  0  0  0  0  0  0  0
    2.9403   -1.7086    0.1486 H   0  0  0  0  0  0  0  0  0  0  0  0
    3.3151   -0.5914   -1.1863 H   0  0  0  0  0  0  0  0  0  0  0  0
    1.2574   -0.0674    1.0192 H   0  0  0  0  0  0  0  0  0  0  0  0
    2.1464    1.4348   -1.2160 H   0  0  0  0  0  0  0  0  0  0  0  0
    0.8484   -0.6455   -1.9623 H   0  0  0  0  0  0  0  0  0  0  0  0
   -0.2006   -2.1888    0.1545 H   0  0  0  0  0  0  0  0  0  0  0  0
   -1.5575   -0.6313   -1.5086 H   0  0  0  0  0  0  0  0  0  0  0  0
   -0.1130    1.7471   -0.9440 H   0  0  0  0  0  0  0  0  0  0  0  0
   -0.9551    0.6808    1.1843 H   0  0  0  0  0  0  0  0  0  0  0  0
   -1.8625   -1.2576    2.0283 H   0  0  0  0  0  0  0  0  0  0  0  0
   -3.5722   -0.1489   -0.1868 H   0  0  0  0  0  0  0  0  0  0  0  0
   -3.4466    0.3606    1.4895 H   0  0  0  0  0  0  0  0  0  0  0  0
   -2.5567    1.9250   -0.7108 H   0  0  0  0  0  0  0  0  0  0  0  0
  1  2  1  0
  2  3  1  0
  3  4  1  0
  3  5  1  0
  5  6  1  0
  5  7  1  0
  7  8  1  0
  7  9  1  0
  9 10  1  0
  9 11  1  0
 11 12  1  0
  1 13  1  0
  2 14  1  0
  2 15  1  0
  3 16  1  1
  4 17  1  0
  5 18  1  6
  6 19  1  0
  7 20  1  6
  8 21  1  0
  9 22  1  1
 10 23  1  0
 11 24  1  0
 11 25  1  0
 12 26  1  0
M  END
$$$$
