OMPs000083
     RDKit          3D

 20 20  0  0  0  0  0  0  0  0999 V2000
    3.7152   -0.1375    0.0282 C   0  0  0  0  0  0  0  0  0  0  0  0
    2.3576    0.3405   -0.4244 C   0  0  0  0  0  0  0  0  0  0  0  0
    2.2551    1.2101   -1.2818 O   0  0  0  0  0  0  0  0  0  0  0  0
    1.3299   -0.2903    0.2534 N   0  0  0  0  0  0  0  0  0  0  0  0
   -0.0566   -0.0898    0.0909 C   0  0  0  0  0  0  0  0  0  0  0  0
   -0.6153    0.8038   -0.8250 C   0  0  0  0  0  0  0  0  0  0  0  0
   -2.0039    0.9413   -0.9232 C   0  0  0  0  0  0  0  0  0  0  0  0
   -2.8349    0.1862   -0.1070 C   0  0  0  0  0  0  0  0  0  0  0  0
   -4.1807    0.3538   -0.2381 O   0  0  0  0  0  0  0  0  0  0  0  0
   -2.3005   -0.7091    0.8107 C   0  0  0  0  0  0  0  0  0  0  0  0
   -0.9118   -0.8450    0.9072 C   0  0  0  0  0  0  0  0  0  0  0  0
    3.7046   -1.2130    0.2275 H   0  0  0  0  0  0  0  0  0  0  0  0
    4.4491    0.0534   -0.7601 H   0  0  0  0  0  0  0  0  0  0  0  0
    4.0059    0.4021    0.9333 H   0  0  0  0  0  0  0  0  0  0  0  0
    1.5986   -0.9697    0.9534 H   0  0  0  0  0  0  0  0  0  0  0  0
   -0.0004    1.4114   -1.4813 H   0  0  0  0  0  0  0  0  0  0  0  0
   -2.4301    1.6392   -1.6386 H   0  0  0  0  0  0  0  0  0  0  0  0
   -4.6318   -0.2324    0.3907 H   0  0  0  0  0  0  0  0  0  0  0  0
   -2.9397   -1.3050    1.4540 H   0  0  0  0  0  0  0  0  0  0  0  0
   -0.5101   -1.5500    1.6302 H   0  0  0  0  0  0  0  0  0  0  0  0
  1  2  1  0
  2  3  2  0
  2  4  1  0
  4  5  1  0
  5  6  2  0
  6  7  1  0
  7  8  2  0
  8  9  1  0
  8 10  1  0
 10 11  2  0
 11  5  1  0
  1 12  1  0
  1 13  1  0
  1 14  1  0
  4 15  1  0
  6 16  1  0
  7 17  1  0
  9 18  1  0
 10 19  1  0
 11 20  1  0
M  END
$$$$
