OMPs000180
     RDKit          3D

 23 23  0  0  0  0  0  0  0  0999 V2000
   -1.8960   -0.9758    1.0374 N   0  0  0  0  0  0  0  0  0  0  0  0
   -1.6139    0.2110    0.1850 C   0  0  1  0  0  0  0  0  0  0  0  0
   -0.7217   -0.1521   -1.0141 C   0  0  0  0  0  0  0  0  0  0  0  0
    0.7493   -0.1956   -0.6688 C   0  0  0  0  0  0  0  0  0  0  0  0
    1.3042   -1.3223   -0.0484 C   0  0  0  0  0  0  0  0  0  0  0  0
    2.6610   -1.3557    0.2771 C   0  0  0  0  0  0  0  0  0  0  0  0
    3.4755   -0.2626   -0.0120 C   0  0  0  0  0  0  0  0  0  0  0  0
    2.9332    0.8659   -0.6238 C   0  0  0  0  0  0  0  0  0  0  0  0
    1.5761    0.9013   -0.9492 C   0  0  0  0  0  0  0  0  0  0  0  0
   -2.9352    0.7947   -0.3245 C   0  0  0  0  0  0  0  0  0  0  0  0
   -2.8015    2.0194   -0.8709 O   0  0  0  0  0  0  0  0  0  0  0  0
   -4.0349    0.2655   -0.2582 O   0  0  0  0  0  0  0  0  0  0  0  0
   -2.4869   -1.6159    0.5012 H   0  0  0  0  0  0  0  0  0  0  0  0
   -2.4914   -0.6753    1.8114 H   0  0  0  0  0  0  0  0  0  0  0  0
   -1.1432    0.9713    0.8197 H   0  0  0  0  0  0  0  0  0  0  0  0
   -1.0212   -1.1185   -1.4429 H   0  0  0  0  0  0  0  0  0  0  0  0
   -0.8639    0.5659   -1.8327 H   0  0  0  0  0  0  0  0  0  0  0  0
    0.6771   -2.1779    0.1938 H   0  0  0  0  0  0  0  0  0  0  0  0
    3.0798   -2.2341    0.7606 H   0  0  0  0  0  0  0  0  0  0  0  0
    4.5314   -0.2893    0.2429 H   0  0  0  0  0  0  0  0  0  0  0  0
    3.5672    1.7199   -0.8464 H   0  0  0  0  0  0  0  0  0  0  0  0
    1.1691    1.7915   -1.4234 H   0  0  0  0  0  0  0  0  0  0  0  0
   -3.7144    2.2688   -1.1282 H   0  0  0  0  0  0  0  0  0  0  0  0
  1  2  1  0
  2  3  1  0
  3  4  1  0
  4  5  2  0
  5  6  1  0
  6  7  2  0
  7  8  1  0
  8  9  2  0
  2 10  1  0
 10 11  1  0
 10 12  2  0
  9  4  1  0
  1 13  1  0
  1 14  1  0
  2 15  1  1
  3 16  1  0
  3 17  1  0
  5 18  1  0
  6 19  1  0
  7 20  1  0
  8 21  1  0
  9 22  1  0
 11 23  1  0
M  END
$$$$
