OMPs000213
     RDKit          3D

 30 31  0  0  0  0  0  0  0  0999 V2000
    5.0510    1.0432    0.7916 C   0  0  0  0  0  0  0  0  0  0  0  0
    3.6879    0.4686    0.5484 C   0  0  0  0  0  0  0  0  0  0  0  0
    3.4044   -0.8324    0.9172 C   0  0  0  0  0  0  0  0  0  0  0  0
    2.1214   -1.2658    0.6711 C   0  0  0  0  0  0  0  0  0  0  0  0
    1.1777   -0.4994    0.0992 N   0  0  0  0  0  0  0  0  0  0  0  0
    1.5735    0.7202   -0.2629 C   0  0  0  0  0  0  0  0  0  0  0  0
    0.6300    1.6341   -0.7134 N   0  0  0  0  0  0  0  0  0  0  0  0
   -0.4794    1.1056   -1.8284 S   0  0  0  0  0  6  0  0  0  0  0  0
   -1.1046    2.3012   -2.3615 O   0  0  0  0  0  0  0  0  0  0  0  0
    0.1308    0.1484   -2.7271 O   0  0  0  0  0  0  0  0  0  0  0  0
   -1.7172    0.2918   -0.8495 C   0  0  0  0  0  0  0  0  0  0  0  0
   -2.5536    1.0552   -0.0322 C   0  0  0  0  0  0  0  0  0  0  0  0
   -3.5459    0.4206    0.7195 C   0  0  0  0  0  0  0  0  0  0  0  0
   -3.7432   -0.9610    0.6226 C   0  0  0  0  0  0  0  0  0  0  0  0
   -4.6590   -1.6013    1.4659 N   0  0  0  0  0  0  0  0  0  0  0  0
   -2.8663   -1.7152   -0.1643 C   0  0  0  0  0  0  0  0  0  0  0  0
   -1.8701   -1.0934   -0.9219 C   0  0  0  0  0  0  0  0  0  0  0  0
    2.7688    1.2713   -0.0273 N   0  0  0  0  0  0  0  0  0  0  0  0
    5.1085    2.0757    0.4320 H   0  0  0  0  0  0  0  0  0  0  0  0
    5.8089    0.4562    0.2636 H   0  0  0  0  0  0  0  0  0  0  0  0
    5.2762    1.0421    1.8626 H   0  0  0  0  0  0  0  0  0  0  0  0
    4.1394   -1.4765    1.3818 H   0  0  0  0  0  0  0  0  0  0  0  0
    1.8047   -2.2692    0.9411 H   0  0  0  0  0  0  0  0  0  0  0  0
    1.0233    2.5428   -0.9254 H   0  0  0  0  0  0  0  0  0  0  0  0
   -2.4326    2.1337    0.0317 H   0  0  0  0  0  0  0  0  0  0  0  0
   -4.1699    1.0169    1.3802 H   0  0  0  0  0  0  0  0  0  0  0  0
   -4.9637   -2.5079    1.1255 H   0  0  0  0  0  0  0  0  0  0  0  0
   -5.4389   -1.0140    1.7445 H   0  0  0  0  0  0  0  0  0  0  0  0
   -2.9534   -2.7981   -0.1961 H   0  0  0  0  0  0  0  0  0  0  0  0
   -1.2090   -1.6937   -1.5423 H   0  0  0  0  0  0  0  0  0  0  0  0
  1  2  1  0
  2  3  2  0
  3  4  1  0
  4  5  2  0
  5  6  1  0
  6  7  1  0
  7  8  1  0
  8  9  2  0
  8 10  2  0
  8 11  1  0
 11 12  2  0
 12 13  1  0
 13 14  2  0
 14 15  1  0
 14 16  1  0
 16 17  2  0
  6 18  2  0
 18  2  1  0
 17 11  1  0
  1 19  1  0
  1 20  1  0
  1 21  1  0
  3 22  1  0
  4 23  1  0
  7 24  1  0
 12 25  1  0
 13 26  1  0
 15 27  1  0
 15 28  1  0
 16 29  1  0
 17 30  1  0
M  END
$$$$
