OMPs000149
     RDKit          3D

 14 13  0  0  0  0  0  0  0  0999 V2000
    2.4485    0.7479    0.5212 O   0  0  0  0  0  0  0  0  0  0  0  0
    1.7434    0.1349   -0.4575 C   0  0  0  0  0  0  0  0  0  0  0  0
    2.3168   -0.6416   -1.2081 O   0  0  0  0  0  0  0  0  0  0  0  0
    0.2726    0.5035   -0.4876 C   0  0  0  0  0  0  0  0  0  0  0  0
    0.0511    1.7482    0.0290 F   0  0  0  0  0  0  0  0  0  0  0  0
   -0.1970    0.5551   -1.7682 F   0  0  0  0  0  0  0  0  0  0  0  0
   -0.4683   -0.5416    0.3081 C   0  0  0  0  0  0  0  0  0  0  0  0
    0.0050   -0.6012    1.5878 F   0  0  0  0  0  0  0  0  0  0  0  0
   -0.2661   -1.7854   -0.2165 F   0  0  0  0  0  0  0  0  0  0  0  0
   -1.9449   -0.2120    0.3128 C   0  0  0  0  0  0  0  0  0  0  0  0
   -2.6481   -1.1338    1.0199 F   0  0  0  0  0  0  0  0  0  0  0  0
   -2.4768   -0.1922   -0.9313 F   0  0  0  0  0  0  0  0  0  0  0  0
   -2.2068    0.9890    0.8791 F   0  0  0  0  0  0  0  0  0  0  0  0
    3.3708    0.4292    0.4112 H   0  0  0  0  0  0  0  0  0  0  0  0
  1  2  1  0
  2  3  2  0
  2  4  1  0
  4  5  1  0
  4  6  1  0
  4  7  1  0
  7  8  1  0
  7  9  1  0
  7 10  1  0
 10 11  1  0
 10 12  1  0
 10 13  1  0
  1 14  1  0
M  END
$$$$
