OMPs000103
     RDKit          3D

 32 33  0  0  0  0  0  0  0  0999 V2000
   -4.3163   -0.5097    1.0513 C   0  0  0  0  0  0  0  0  0  0  0  0
   -3.2313   -0.9515    0.0668 C   0  0  0  0  0  0  0  0  0  0  0  0
   -3.7539   -0.8914   -1.3567 C   0  0  0  0  0  0  0  0  0  0  0  0
   -3.1879   -1.8162   -2.1608 O   0  0  0  0  0  0  0  0  0  0  0  0
   -4.5799   -0.1122   -1.8056 O   0  0  0  0  0  0  0  0  0  0  0  0
   -1.9557   -0.1460    0.2337 C   0  0  0  0  0  0  0  0  0  0  0  0
   -1.9252    1.2368   -0.0106 C   0  0  0  0  0  0  0  0  0  0  0  0
   -0.7459    1.9657    0.1593 C   0  0  0  0  0  0  0  0  0  0  0  0
    0.4211    1.3226    0.5677 C   0  0  0  0  0  0  0  0  0  0  0  0
    0.4089   -0.0550    0.7894 C   0  0  0  0  0  0  0  0  0  0  0  0
    1.5170   -0.7451    1.2265 O   0  0  0  0  0  0  0  0  0  0  0  0
    2.6996   -0.5297    0.5556 C   0  0  0  0  0  0  0  0  0  0  0  0
    3.8459   -0.3613    1.3331 C   0  0  0  0  0  0  0  0  0  0  0  0
    5.0831   -0.1724    0.7165 C   0  0  0  0  0  0  0  0  0  0  0  0
    5.1745   -0.1674   -0.6758 C   0  0  0  0  0  0  0  0  0  0  0  0
    4.0313   -0.3588   -1.4529 C   0  0  0  0  0  0  0  0  0  0  0  0
    2.7925   -0.5482   -0.8386 C   0  0  0  0  0  0  0  0  0  0  0  0
   -0.7739   -0.7827    0.6428 C   0  0  0  0  0  0  0  0  0  0  0  0
   -4.6232    0.5295    0.8880 H   0  0  0  0  0  0  0  0  0  0  0  0
   -3.9655   -0.5960    2.0857 H   0  0  0  0  0  0  0  0  0  0  0  0
   -5.2113   -1.1326    0.9433 H   0  0  0  0  0  0  0  0  0  0  0  0
   -3.0295   -2.0095    0.2835 H   0  0  0  0  0  0  0  0  0  0  0  0
   -3.5835   -1.6400   -3.0399 H   0  0  0  0  0  0  0  0  0  0  0  0
   -2.8238    1.7614   -0.3327 H   0  0  0  0  0  0  0  0  0  0  0  0
   -0.7395    3.0374   -0.0226 H   0  0  0  0  0  0  0  0  0  0  0  0
    1.3301    1.8991    0.7143 H   0  0  0  0  0  0  0  0  0  0  0  0
    3.7736   -0.3730    2.4170 H   0  0  0  0  0  0  0  0  0  0  0  0
    5.9755   -0.0334    1.3210 H   0  0  0  0  0  0  0  0  0  0  0  0
    6.1390   -0.0223   -1.1560 H   0  0  0  0  0  0  0  0  0  0  0  0
    4.1057   -0.3668   -2.5372 H   0  0  0  0  0  0  0  0  0  0  0  0
    1.9103   -0.7149   -1.4502 H   0  0  0  0  0  0  0  0  0  0  0  0
   -0.7620   -1.8515    0.8442 H   0  0  0  0  0  0  0  0  0  0  0  0
  1  2  1  0
  2  3  1  0
  3  4  1  0
  3  5  2  0
  2  6  1  0
  6  7  2  0
  7  8  1  0
  8  9  2  0
  9 10  1  0
 10 11  1  0
 11 12  1  0
 12 13  2  0
 13 14  1  0
 14 15  2  0
 15 16  1  0
 16 17  2  0
 10 18  2  0
 18  6  1  0
 17 12  1  0
  1 19  1  0
  1 20  1  0
  1 21  1  0
  2 22  1  0
  4 23  1  0
  7 24  1  0
  8 25  1  0
  9 26  1  0
 13 27  1  0
 14 28  1  0
 15 29  1  0
 16 30  1  0
 17 31  1  0
 18 32  1  0
M  END
$$$$
