OMPs000188
     RDKit          3D

 21 21  0  0  0  0  0  0  0  0999 V2000
    3.7225   -0.1276    0.1777 C   0  0  0  0  0  0  0  0  0  0  0  0
    2.8993    1.1095   -0.0659 C   0  0  0  0  0  0  0  0  0  0  0  0
    3.4241    2.2105   -0.2289 O   0  0  0  0  0  0  0  0  0  0  0  0
    1.4149    1.0156   -0.1117 C   0  0  0  0  0  0  0  0  0  0  0  0
    0.7241   -0.1216    0.0565 C   0  0  0  0  0  0  0  0  0  0  0  0
   -0.7436   -0.1918    0.0004 C   0  0  0  0  0  0  0  0  0  0  0  0
   -1.3456   -1.3206   -0.5714 C   0  0  0  0  0  0  0  0  0  0  0  0
   -2.7370   -1.4384   -0.6188 C   0  0  0  0  0  0  0  0  0  0  0  0
   -3.5407   -0.4340   -0.0844 C   0  0  0  0  0  0  0  0  0  0  0  0
   -2.9544    0.6856    0.5015 C   0  0  0  0  0  0  0  0  0  0  0  0
   -1.5628    0.8043    0.5487 C   0  0  0  0  0  0  0  0  0  0  0  0
    4.7838    0.1393    0.1759 H   0  0  0  0  0  0  0  0  0  0  0  0
    3.4798   -0.5559    1.1536 H   0  0  0  0  0  0  0  0  0  0  0  0
    3.5527   -0.8563   -0.6191 H   0  0  0  0  0  0  0  0  0  0  0  0
    0.9240    1.9640   -0.3083 H   0  0  0  0  0  0  0  0  0  0  0  0
    1.2231   -1.0714    0.2265 H   0  0  0  0  0  0  0  0  0  0  0  0
   -0.7375   -2.1167   -0.9953 H   0  0  0  0  0  0  0  0  0  0  0  0
   -3.1925   -2.3149   -1.0725 H   0  0  0  0  0  0  0  0  0  0  0  0
   -4.6232   -0.5255   -0.1204 H   0  0  0  0  0  0  0  0  0  0  0  0
   -3.5797    1.4664    0.9272 H   0  0  0  0  0  0  0  0  0  0  0  0
   -1.1312    1.6796    1.0285 H   0  0  0  0  0  0  0  0  0  0  0  0
  1  2  1  0
  2  3  2  0
  2  4  1  0
  4  5  2  3
  5  6  1  0
  6  7  2  0
  7  8  1  0
  8  9  2  0
  9 10  1  0
 10 11  2  0
 11  6  1  0
  1 12  1  0
  1 13  1  0
  1 14  1  0
  4 15  1  0
  5 16  1  0
  7 17  1  0
  8 18  1  0
  9 19  1  0
 10 20  1  0
 11 21  1  0
M  END
$$$$
