OMPs000041
     RDKit          3D

 23 22  0  0  0  0  0  0  0  0999 V2000
    2.8212   -0.6236    0.0383 C   0  0  0  0  0  0  0  0  0  0  0  0
    1.7528   -0.1887    1.0314 C   0  0  0  0  0  0  0  0  0  0  0  0
    1.0051    1.0819    0.5986 C   0  0  0  0  0  0  0  0  0  0  0  0
    0.3249    0.9994   -0.7048 N   0  0  0  0  0  0  0  0  0  0  0  0
   -0.6945   -0.0683   -0.7890 C   0  0  0  0  0  0  0  0  0  0  0  0
   -1.8740    0.0624    0.1874 C   0  0  0  0  0  0  0  0  0  0  0  0
   -2.8887   -1.0525   -0.0243 C   0  0  0  0  0  0  0  0  0  0  0  0
   -0.0663    2.1829   -1.1320 N   0  0  0  0  0  0  0  0  0  0  0  0
   -0.3744    2.1534   -2.3284 O   0  0  0  0  0  0  0  0  0  0  0  0
    3.3666   -1.4889    0.4283 H   0  0  0  0  0  0  0  0  0  0  0  0
    2.3841   -0.9100   -0.9230 H   0  0  0  0  0  0  0  0  0  0  0  0
    3.5434    0.1802   -0.1369 H   0  0  0  0  0  0  0  0  0  0  0  0
    2.2365    0.0103    1.9957 H   0  0  0  0  0  0  0  0  0  0  0  0
    1.0531   -1.0130    1.2070 H   0  0  0  0  0  0  0  0  0  0  0  0
    0.3020    1.3676    1.3922 H   0  0  0  0  0  0  0  0  0  0  0  0
    1.7540    1.8872    0.5611 H   0  0  0  0  0  0  0  0  0  0  0  0
   -1.0859   -0.1280   -1.8146 H   0  0  0  0  0  0  0  0  0  0  0  0
   -0.2110   -1.0413   -0.6387 H   0  0  0  0  0  0  0  0  0  0  0  0
   -1.5229    0.0171    1.2239 H   0  0  0  0  0  0  0  0  0  0  0  0
   -2.3770    1.0268    0.0524 H   0  0  0  0  0  0  0  0  0  0  0  0
   -2.4310   -2.0343    0.1337 H   0  0  0  0  0  0  0  0  0  0  0  0
   -3.7193   -0.9473    0.6805 H   0  0  0  0  0  0  0  0  0  0  0  0
   -3.2986   -1.0226   -1.0389 H   0  0  0  0  0  0  0  0  0  0  0  0
  1  2  1  0
  2  3  1  0
  3  4  1  0
  4  5  1  0
  5  6  1  0
  6  7  1  0
  4  8  1  0
  8  9  2  0
  1 10  1  0
  1 11  1  0
  1 12  1  0
  2 13  1  0
  2 14  1  0
  3 15  1  0
  3 16  1  0
  5 17  1  0
  5 18  1  0
  6 19  1  0
  6 20  1  0
  7 21  1  0
  7 22  1  0
  7 23  1  0
M  END
$$$$
