OMPs000165
     RDKit          3D

 15 15  0  0  0  0  0  0  0  0999 V2000
   -2.9650   -0.0975   -0.4772 O   0  0  0  0  0  0  0  0  0  0  0  0
   -1.6205   -0.0523   -0.2601 C   0  0  0  0  0  0  0  0  0  0  0  0
   -1.0474    0.9391    0.5330 C   0  0  0  0  0  0  0  0  0  0  0  0
    0.3362    0.9481    0.7294 C   0  0  0  0  0  0  0  0  0  0  0  0
    1.1285   -0.0403    0.1258 C   0  0  0  0  0  0  0  0  0  0  0  0
    0.5448   -1.0347   -0.6709 C   0  0  0  0  0  0  0  0  0  0  0  0
   -0.8382   -1.0350   -0.8609 C   0  0  0  0  0  0  0  0  0  0  0  0
    2.5824   -0.0323    0.3311 N   0  0  0  0  0  0  0  0  0  0  0  0
    3.0586    0.8641    1.0425 O   0  0  0  0  0  0  0  0  0  0  0  0
    3.2482   -0.9215   -0.2182 O   0  0  0  0  0  0  0  0  0  0  0  0
   -3.3885    0.6385   -0.0050 H   0  0  0  0  0  0  0  0  0  0  0  0
   -1.6564    1.7063    1.0023 H   0  0  0  0  0  0  0  0  0  0  0  0
    0.7786    1.7249    1.3499 H   0  0  0  0  0  0  0  0  0  0  0  0
    1.1451   -1.8078   -1.1457 H   0  0  0  0  0  0  0  0  0  0  0  0
   -1.3064   -1.7995   -1.4761 H   0  0  0  0  0  0  0  0  0  0  0  0
  1  2  1  0
  2  3  2  0
  3  4  1  0
  4  5  2  0
  5  6  1  0
  6  7  2  0
  5  8  1  0
  8  9  1  0
  8 10  2  0
  7  2  1  0
  1 11  1  0
  3 12  1  0
  4 13  1  0
  6 14  1  0
  7 15  1  0
M  CHG  2   8   1   9  -1
M  END
$$$$
