OMPs000186
     RDKit          3D

 17 17  0  0  0  0  0  0  0  0999 V2000
   -2.7230    0.1545   -0.0639 C   0  0  0  0  0  0  0  0  0  0  0  0
   -1.2267    0.0438   -0.0263 C   0  0  0  0  0  0  0  0  0  0  0  0
   -0.4963   -0.0719   -1.2165 C   0  0  0  0  0  0  0  0  0  0  0  0
    0.8976   -0.1436   -1.1864 C   0  0  0  0  0  0  0  0  0  0  0  0
    1.5682   -0.0890    0.0372 C   0  0  0  0  0  0  0  0  0  0  0  0
    3.0422   -0.1631    0.0809 C   0  0  0  0  0  0  0  0  0  0  0  0
    3.7222   -0.2740   -0.9316 O   0  0  0  0  0  0  0  0  0  0  0  0
    0.8532    0.0409    1.2299 C   0  0  0  0  0  0  0  0  0  0  0  0
   -0.5416    0.1122    1.1946 C   0  0  0  0  0  0  0  0  0  0  0  0
   -3.0181    1.2047   -0.1507 H   0  0  0  0  0  0  0  0  0  0  0  0
   -3.1343   -0.4008   -0.9134 H   0  0  0  0  0  0  0  0  0  0  0  0
   -3.1685   -0.2650    0.8442 H   0  0  0  0  0  0  0  0  0  0  0  0
   -1.0089   -0.1080   -2.1757 H   0  0  0  0  0  0  0  0  0  0  0  0
    1.4558   -0.2388   -2.1155 H   0  0  0  0  0  0  0  0  0  0  0  0
    3.5073   -0.1132    1.0797 H   0  0  0  0  0  0  0  0  0  0  0  0
    1.3644    0.0905    2.1875 H   0  0  0  0  0  0  0  0  0  0  0  0
   -1.0936    0.2209    2.1262 H   0  0  0  0  0  0  0  0  0  0  0  0
  1  2  1  0
  2  3  2  0
  3  4  1  0
  4  5  2  0
  5  6  1  0
  6  7  2  0
  5  8  1  0
  8  9  2  0
  9  2  1  0
  1 10  1  0
  1 11  1  0
  1 12  1  0
  3 13  1  0
  4 14  1  0
  6 15  1  0
  8 16  1  0
  9 17  1  0
M  END
$$$$
