OMPs000122
     RDKit          3D

 16 16  0  0  0  0  0  0  0  0999 V2000
    2.5705   -0.8979   -0.6834 O   0  0  0  0  0  0  0  0  0  0  0  0
    1.9749   -0.0159    0.2597 C   0  0  0  0  0  0  0  0  0  0  0  0
    0.4799    0.0409    0.0865 C   0  0  0  0  0  0  0  0  0  0  0  0
   -0.2483   -1.0693   -0.3642 C   0  0  0  0  0  0  0  0  0  0  0  0
   -1.6386   -1.0112   -0.4803 C   0  0  0  0  0  0  0  0  0  0  0  0
   -2.3193    0.1546   -0.1367 C   0  0  0  0  0  0  0  0  0  0  0  0
   -1.6109    1.2616    0.3257 C   0  0  0  0  0  0  0  0  0  0  0  0
   -0.2202    1.2039    0.4415 C   0  0  0  0  0  0  0  0  0  0  0  0
    3.5291   -0.8579   -0.5331 H   0  0  0  0  0  0  0  0  0  0  0  0
    2.4139    0.9763    0.1105 H   0  0  0  0  0  0  0  0  0  0  0  0
    2.2130   -0.3668    1.2691 H   0  0  0  0  0  0  0  0  0  0  0  0
    0.2710   -1.9867   -0.6348 H   0  0  0  0  0  0  0  0  0  0  0  0
   -2.1877   -1.8774   -0.8396 H   0  0  0  0  0  0  0  0  0  0  0  0
   -3.4011    0.1993   -0.2280 H   0  0  0  0  0  0  0  0  0  0  0  0
   -2.1413    2.1703    0.5975 H   0  0  0  0  0  0  0  0  0  0  0  0
    0.3149    2.0763    0.8096 H   0  0  0  0  0  0  0  0  0  0  0  0
  1  2  1  0
  2  3  1  0
  3  4  2  0
  4  5  1  0
  5  6  2  0
  6  7  1  0
  7  8  2  0
  8  3  1  0
  1  9  1  0
  2 10  1  0
  2 11  1  0
  4 12  1  0
  5 13  1  0
  6 14  1  0
  7 15  1  0
  8 16  1  0
M  END
$$$$
