OMPs000008
     RDKit          3D

 28 29  0  0  0  0  0  0  0  0999 V2000
    3.7995   -1.6751   -1.2031 C   0  0  0  0  0  0  0  0  0  0  0  0
    2.9709   -0.4578   -1.1784 C   0  0  0  0  0  0  0  0  0  0  0  0
    2.8624    0.2249   -2.3486 O   0  0  0  0  0  0  0  0  0  0  0  0
    2.0676    1.3405   -2.1550 N   0  0  0  0  0  0  0  0  0  0  0  0
    1.6999    1.3091   -0.8715 C   0  0  0  0  0  0  0  0  0  0  0  0
    0.8874    2.3104   -0.3768 N   0  0  0  0  0  0  0  0  0  0  0  0
    0.0939    2.2900    1.0820 S   0  0  0  0  0  6  0  0  0  0  0  0
    1.0289    1.9222    2.1241 O   0  0  0  0  0  0  0  0  0  0  0  0
   -0.6756    3.5134    1.1582 O   0  0  0  0  0  0  0  0  0  0  0  0
   -1.0651    0.9587    0.8765 C   0  0  0  0  0  0  0  0  0  0  0  0
   -2.1089    1.0993   -0.0406 C   0  0  0  0  0  0  0  0  0  0  0  0
   -3.0253    0.0571   -0.2025 C   0  0  0  0  0  0  0  0  0  0  0  0
   -2.8895   -1.1346    0.5172 C   0  0  0  0  0  0  0  0  0  0  0  0
   -3.8782   -2.1200    0.4367 N   0  0  0  0  0  0  0  0  0  0  0  0
   -1.8809   -1.2283    1.4820 C   0  0  0  0  0  0  0  0  0  0  0  0
   -0.9566   -0.1945    1.6550 C   0  0  0  0  0  0  0  0  0  0  0  0
    2.2493    0.1938   -0.2088 C   0  0  0  0  0  0  0  0  0  0  0  0
    3.4039   -2.3940   -1.9271 H   0  0  0  0  0  0  0  0  0  0  0  0
    4.8291   -1.4327   -1.4838 H   0  0  0  0  0  0  0  0  0  0  0  0
    3.8188   -2.1570   -0.2208 H   0  0  0  0  0  0  0  0  0  0  0  0
    0.6293    3.0580   -1.0147 H   0  0  0  0  0  0  0  0  0  0  0  0
   -2.2282    2.0148   -0.6148 H   0  0  0  0  0  0  0  0  0  0  0  0
   -3.8538    0.1848   -0.8951 H   0  0  0  0  0  0  0  0  0  0  0  0
   -4.3744   -2.1409   -0.4488 H   0  0  0  0  0  0  0  0  0  0  0  0
   -3.5731   -3.0427    0.7299 H   0  0  0  0  0  0  0  0  0  0  0  0
   -1.8112   -2.1105    2.1138 H   0  0  0  0  0  0  0  0  0  0  0  0
   -0.1773   -0.2931    2.4069 H   0  0  0  0  0  0  0  0  0  0  0  0
    2.1571   -0.0957    0.8265 H   0  0  0  0  0  0  0  0  0  0  0  0
  1  2  1  0
  2  3  1  0
  3  4  1  0
  4  5  2  0
  5  6  1  0
  6  7  1  0
  7  8  2  0
  7  9  2  0
  7 10  1  0
 10 11  2  0
 11 12  1  0
 12 13  2  0
 13 14  1  0
 13 15  1  0
 15 16  2  0
  5 17  1  0
 17  2  2  0
 16 10  1  0
  1 18  1  0
  1 19  1  0
  1 20  1  0
  6 21  1  0
 11 22  1  0
 12 23  1  0
 14 24  1  0
 14 25  1  0
 15 26  1  0
 16 27  1  0
 17 28  1  0
M  END
$$$$
