OMPs000199
     RDKit          3D

  4  3  0  0  0  0  0  0  0  0999 V2000
   -0.0122    0.0019    0.0002 C   0  0  0  0  0  0  0  0  0  0  0  0
    1.1981   -0.1844   -0.0180 O   0  0  0  0  0  0  0  0  0  0  0  0
   -0.4513    1.0123    0.0023 H   0  0  0  0  0  0  0  0  0  0  0  0
   -0.7346   -0.8298    0.0155 H   0  0  0  0  0  0  0  0  0  0  0  0
  1  2  2  0
  1  3  1  0
  1  4  1  0
M  END
$$$$
