OMPs000123
     RDKit          3D

 15 15  0  0  0  0  0  0  0  0999 V2000
    2.2117   -0.1717    0.1137 C   0  0  0  0  0  0  0  0  0  0  0  0
    0.7201   -0.0518    0.0125 C   0  0  0  0  0  0  0  0  0  0  0  0
    0.0942    1.1877    0.1943 C   0  0  0  0  0  0  0  0  0  0  0  0
   -1.2964    1.2935    0.1314 C   0  0  0  0  0  0  0  0  0  0  0  0
   -2.0729    0.1604   -0.1033 C   0  0  0  0  0  0  0  0  0  0  0  0
   -1.4600   -1.0799   -0.2709 C   0  0  0  0  0  0  0  0  0  0  0  0
   -0.0695   -1.1870   -0.2082 C   0  0  0  0  0  0  0  0  0  0  0  0
    2.5018   -0.3674    1.1505 H   0  0  0  0  0  0  0  0  0  0  0  0
    2.7013    0.7479   -0.2236 H   0  0  0  0  0  0  0  0  0  0  0  0
    2.5818   -0.9864   -0.5176 H   0  0  0  0  0  0  0  0  0  0  0  0
    0.6869    2.0792    0.3855 H   0  0  0  0  0  0  0  0  0  0  0  0
   -1.7735    2.2602    0.2684 H   0  0  0  0  0  0  0  0  0  0  0  0
   -3.1553    0.2431   -0.1514 H   0  0  0  0  0  0  0  0  0  0  0  0
   -2.0648   -1.9653   -0.4478 H   0  0  0  0  0  0  0  0  0  0  0  0
    0.3945   -2.1626   -0.3335 H   0  0  0  0  0  0  0  0  0  0  0  0
  1  2  1  0
  2  3  2  0
  3  4  1  0
  4  5  2  0
  5  6  1  0
  6  7  2  0
  7  2  1  0
  1  8  1  0
  1  9  1  0
  1 10  1  0
  3 11  1  0
  4 12  1  0
  5 13  1  0
  6 14  1  0
  7 15  1  0
M  END
$$$$
