OMPs000119
     RDKit          3D

 14 13  0  0  0  0  0  0  0  0999 V2000
   -2.1200    0.9291    0.0701 C   0  0  0  0  0  0  0  0  0  0  0  0
   -1.1840   -0.2637    0.0554 C   0  0  0  0  0  0  0  0  0  0  0  0
    0.1613    0.2240   -0.0141 O   0  0  0  0  0  0  0  0  0  0  0  0
    1.1074   -0.7544   -0.0339 C   0  0  0  0  0  0  0  0  0  0  0  0
    2.4735   -0.1442   -0.1071 C   0  0  0  0  0  0  0  0  0  0  0  0
    0.8879   -1.9567    0.0022 O   0  0  0  0  0  0  0  0  0  0  0  0
   -1.9833    1.5375   -0.8301 H   0  0  0  0  0  0  0  0  0  0  0  0
   -1.9065    1.5762    0.9272 H   0  0  0  0  0  0  0  0  0  0  0  0
   -3.1634    0.6057    0.1228 H   0  0  0  0  0  0  0  0  0  0  0  0
   -1.3179   -0.8501    0.9713 H   0  0  0  0  0  0  0  0  0  0  0  0
   -1.3961   -0.8896   -0.8186 H   0  0  0  0  0  0  0  0  0  0  0  0
    3.2250   -0.9388   -0.1224 H   0  0  0  0  0  0  0  0  0  0  0  0
    2.5687    0.4428   -1.0240 H   0  0  0  0  0  0  0  0  0  0  0  0
    2.6472    0.4824    0.7714 H   0  0  0  0  0  0  0  0  0  0  0  0
  1  2  1  0
  2  3  1  0
  3  4  1  0
  4  5  1  0
  4  6  2  0
  1  7  1  0
  1  8  1  0
  1  9  1  0
  2 10  1  0
  2 11  1  0
  5 12  1  0
  5 13  1  0
  5 14  1  0
M  END
$$$$
