OMPs000036
     RDKit          3D

 11 10  0  0  0  0  0  0  0  0999 V2000
   -0.9762   -0.6693    0.0899 C   0  0  0  0  0  0  0  0  0  0  0  0
   -0.0887    0.4998    0.1406 N   0  0  0  0  0  0  0  0  0  0  0  0
    1.3030    0.0577    0.2498 C   0  0  0  0  0  0  0  0  0  0  0  0
   -0.2586    1.3496   -0.8488 N   0  0  0  0  0  0  0  0  0  0  0  0
   -1.3668    1.8931   -0.7848 O   0  0  0  0  0  0  0  0  0  0  0  0
   -0.8095   -1.2758   -0.8090 H   0  0  0  0  0  0  0  0  0  0  0  0
   -2.0328   -0.3757    0.1140 H   0  0  0  0  0  0  0  0  0  0  0  0
   -0.8193   -1.3081    0.9671 H   0  0  0  0  0  0  0  0  0  0  0  0
    1.4413   -0.5659    1.1410 H   0  0  0  0  0  0  0  0  0  0  0  0
    1.6277   -0.5190   -0.6255 H   0  0  0  0  0  0  0  0  0  0  0  0
    1.9799    0.9136    0.3657 H   0  0  0  0  0  0  0  0  0  0  0  0
  1  2  1  0
  2  3  1  0
  2  4  1  0
  4  5  2  0
  1  6  1  0
  1  7  1  0
  1  8  1  0
  3  9  1  0
  3 10  1  0
  3 11  1  0
M  END
$$$$
