OMPs000154
     RDKit          3D

 29 28  0  0  0  0  0  0  0  0999 V2000
    4.5853   -0.4797    0.3443 C   0  0  0  0  0  0  0  0  0  0  0  0
    3.5404    0.5120    0.8322 C   0  0  0  0  0  0  0  0  0  0  0  0
    2.2089    0.4197    0.0818 C   0  0  0  0  0  0  0  0  0  0  0  0
    1.4640   -0.8944    0.3315 C   0  0  0  0  0  0  0  0  0  0  0  0
    0.1352   -0.9929   -0.4253 C   0  0  0  0  0  0  0  0  0  0  0  0
   -0.9221   -0.0012    0.0652 C   0  0  0  0  0  0  0  0  0  0  0  0
   -2.2612   -0.2261   -0.6401 C   0  0  0  0  0  0  0  0  0  0  0  0
   -3.3185    0.7648   -0.1558 C   0  0  0  0  0  0  0  0  0  0  0  0
   -4.6462    0.5542   -0.8432 C   0  0  0  0  0  0  0  0  0  0  0  0
   -4.8844   -0.2947   -1.6902 O   0  0  0  0  0  0  0  0  0  0  0  0
   -5.5478    1.4605   -0.3737 O   0  0  0  0  0  0  0  0  0  0  0  0
   -6.8160    1.3058   -0.9890 F   0  0  0  0  0  0  0  0  0  0  0  0
    4.7446   -0.3844   -0.7344 H   0  0  0  0  0  0  0  0  0  0  0  0
    4.2939   -1.5111    0.5622 H   0  0  0  0  0  0  0  0  0  0  0  0
    5.5410   -0.2941    0.8452 H   0  0  0  0  0  0  0  0  0  0  0  0
    3.3748    0.3697    1.9064 H   0  0  0  0  0  0  0  0  0  0  0  0
    3.9394    1.5255    0.7048 H   0  0  0  0  0  0  0  0  0  0  0  0
    2.3829    0.5492   -0.9931 H   0  0  0  0  0  0  0  0  0  0  0  0
    1.5872    1.2615    0.4065 H   0  0  0  0  0  0  0  0  0  0  0  0
    1.2856   -1.0219    1.4060 H   0  0  0  0  0  0  0  0  0  0  0  0
    2.0893   -1.7357    0.0121 H   0  0  0  0  0  0  0  0  0  0  0  0
   -0.2501   -2.0130   -0.3040 H   0  0  0  0  0  0  0  0  0  0  0  0
    0.3110   -0.8479   -1.4982 H   0  0  0  0  0  0  0  0  0  0  0  0
   -0.5897    1.0261   -0.1199 H   0  0  0  0  0  0  0  0  0  0  0  0
   -1.0552   -0.1109    1.1482 H   0  0  0  0  0  0  0  0  0  0  0  0
   -2.1291   -0.1246   -1.7246 H   0  0  0  0  0  0  0  0  0  0  0  0
   -2.6072   -1.2516   -0.4593 H   0  0  0  0  0  0  0  0  0  0  0  0
   -3.4695    0.6463    0.9230 H   0  0  0  0  0  0  0  0  0  0  0  0
   -2.9866    1.7889   -0.3602 H   0  0  0  0  0  0  0  0  0  0  0  0
  1  2  1  0
  2  3  1  0
  3  4  1  0
  4  5  1  0
  5  6  1  0
  6  7  1  0
  7  8  1  0
  8  9  1  0
  9 10  2  0
  9 11  1  0
 11 12  1  0
  1 13  1  0
  1 14  1  0
  1 15  1  0
  2 16  1  0
  2 17  1  0
  3 18  1  0
  3 19  1  0
  4 20  1  0
  4 21  1  0
  5 22  1  0
  5 23  1  0
  6 24  1  0
  6 25  1  0
  7 26  1  0
  7 27  1  0
  8 28  1  0
  8 29  1  0
M  END
$$$$
