OMPs000183
     RDKit          3D

 36 36  0  0  0  0  0  0  0  0999 V2000
    0.0000    0.0000    0.0000 Na  0  0  0  0  0 15  0  0  0  0  0  0
   -1.4162    2.4706    1.0212 C   0  0  0  0  0  0  0  0  0  0  0  0
   -2.4938    1.4662    1.1359 N   0  0  0  0  0  0  0  0  0  0  0  0
   -3.6429    1.7571    0.2773 C   0  0  0  0  0  0  0  0  0  0  0  0
   -1.9582    0.1610    1.0741 C   0  0  0  0  0  0  0  0  0  0  0  0
   -2.1884   -0.7244    0.0109 C   0  0  0  0  0  0  0  0  0  0  0  0
   -1.5313   -1.9597   -0.0562 C   0  0  0  0  0  0  0  0  0  0  0  0
   -0.6181   -2.3344    0.9323 C   0  0  0  0  0  0  0  0  0  0  0  0
   -0.4663   -1.5143    2.0514 C   0  0  0  0  0  0  0  0  0  0  0  0
   -1.1197   -0.2795    2.1128 C   0  0  0  0  0  0  0  0  0  0  0  0
    0.1390   -3.5187    0.7990 N   0  0  0  0  0  0  0  0  0  0  0  0
    1.2611   -3.4798    0.2126 N   0  0  0  0  0  0  0  0  0  0  0  0
    1.7574   -2.2461   -0.2686 C   0  0  0  0  0  0  0  0  0  0  0  0
    2.5413   -1.4259    0.5567 C   0  0  0  0  0  0  0  0  0  0  0  0
    2.9516   -0.1664    0.1168 C   0  0  0  0  0  0  0  0  0  0  0  0
    2.5949    0.2619   -1.1650 C   0  0  0  0  0  0  0  0  0  0  0  0
    1.8826   -0.5722   -2.0282 C   0  0  0  0  0  0  0  0  0  0  0  0
    1.4759   -1.8309   -1.5791 C   0  0  0  0  0  0  0  0  0  0  0  0
    3.0710    1.9321   -1.6835 S   0  0  0  0  0  6  0  0  0  0  0  0
    4.4871    1.9780   -1.3267 O   0  0  0  0  0  0  0  0  0  0  0  0
    2.7905    1.9329   -3.1176 O   0  0  0  0  0  0  0  0  0  0  0  0
    2.1837    2.7605   -0.8681 O   0  0  0  0  0  0  0  0  0  0  0  0
   -0.7103    2.4067    1.8560 H   0  0  0  0  0  0  0  0  0  0  0  0
   -0.8708    2.3626    0.0764 H   0  0  0  0  0  0  0  0  0  0  0  0
   -1.8428    3.4805    1.0504 H   0  0  0  0  0  0  0  0  0  0  0  0
   -3.3590    1.8146   -0.7801 H   0  0  0  0  0  0  0  0  0  0  0  0
   -4.4331    1.0076    0.4022 H   0  0  0  0  0  0  0  0  0  0  0  0
   -4.0780    2.7242    0.5600 H   0  0  0  0  0  0  0  0  0  0  0  0
   -2.8305   -0.4503   -0.8201 H   0  0  0  0  0  0  0  0  0  0  0  0
   -1.6836   -2.6038   -0.9182 H   0  0  0  0  0  0  0  0  0  0  0  0
    0.2078   -1.8081    2.8496 H   0  0  0  0  0  0  0  0  0  0  0  0
   -0.9499    0.3620    2.9750 H   0  0  0  0  0  0  0  0  0  0  0  0
    2.7944   -1.7530    1.5605 H   0  0  0  0  0  0  0  0  0  0  0  0
    3.5244    0.4950    0.7620 H   0  0  0  0  0  0  0  0  0  0  0  0
    1.6303   -0.2318   -3.0288 H   0  0  0  0  0  0  0  0  0  0  0  0
    0.8999   -2.4744   -2.2368 H   0  0  0  0  0  0  0  0  0  0  0  0
  2  3  1  0
  3  4  1  0
  3  5  1  0
  5  6  2  0
  6  7  1  0
  7  8  2  0
  8  9  1  0
  9 10  2  0
  8 11  1  0
 11 12  2  3
 12 13  1  0
 13 14  2  0
 14 15  1  0
 15 16  2  0
 16 17  1  0
 17 18  2  0
 16 19  1  0
 19 20  1  0
 19 21  2  0
 19 22  2  0
 10  5  1  0
 18 13  1  0
  2 23  1  0
  2 24  1  0
  2 25  1  0
  4 26  1  0
  4 27  1  0
  4 28  1  0
  6 29  1  0
  7 30  1  0
  9 31  1  0
 10 32  1  0
 14 33  1  0
 15 34  1  0
 17 35  1  0
 18 36  1  0
M  CHG  2   1   1  20  -1
M  END
$$$$
