OMPs000049
     RDKit          3D

 45 46  0  0  0  0  0  0  0  0999 V2000
   -2.5093    3.4177    1.3785 O   0  0  0  0  0  0  0  0  0  0  0  0
   -1.9445    2.2187    1.8983 C   0  0  0  0  0  0  0  0  0  0  0  0
   -1.7821    1.1347    0.8235 C   0  0  1  0  0  0  0  0  0  0  0  0
   -1.0108    0.0578    1.3747 O   0  0  0  0  0  0  0  0  0  0  0  0
   -0.7529   -0.9867    0.4245 C   0  0  2  0  0  0  0  0  0  0  0  0
   -0.0213   -0.4831   -0.6893 O   0  0  0  0  0  0  0  0  0  0  0  0
    1.3621   -0.8476   -0.7191 C   0  0  2  0  0  0  0  0  0  0  0  0
    1.5398   -2.2655   -1.3402 C   0  0  0  0  0  0  0  0  0  0  0  0
    0.7424   -3.2715   -0.6882 O   0  0  0  0  0  0  0  0  0  0  0  0
    1.9625   -0.8316    0.5915 O   0  0  0  0  0  0  0  0  0  0  0  0
    3.0750    0.0803    0.6046 C   0  0  2  0  0  0  0  0  0  0  0  0
    2.6860    1.3215    1.4221 C   0  0  0  0  0  0  0  0  0  0  0  0
    1.6723    2.0924    0.7841 O   0  0  0  0  0  0  0  0  0  0  0  0
    3.4429    0.3508   -0.8536 C   0  0  1  0  0  0  0  0  0  0  0  0
    4.3571   -0.6553   -1.3171 O   0  0  0  0  0  0  0  0  0  0  0  0
    2.1271    0.1859   -1.5947 C   0  0  2  0  0  0  0  0  0  0  0  0
    1.4702    1.4546   -1.7080 O   0  0  0  0  0  0  0  0  0  0  0  0
   -2.0831   -1.5992   -0.0675 C   0  0  2  0  0  0  0  0  0  0  0  0
   -1.9137   -2.6337   -1.0506 O   0  0  0  0  0  0  0  0  0  0  0  0
   -2.9641   -0.5027   -0.6671 C   0  0  1  0  0  0  0  0  0  0  0  0
   -4.2556   -1.0357   -1.0117 O   0  0  0  0  0  0  0  0  0  0  0  0
   -3.1517    0.6304    0.3427 C   0  0  2  0  0  0  0  0  0  0  0  0
   -3.9221    1.6876   -0.2438 O   0  0  0  0  0  0  0  0  0  0  0  0
   -3.2216    3.1476    0.7583 H   0  0  0  0  0  0  0  0  0  0  0  0
   -2.5744    1.8620    2.7209 H   0  0  0  0  0  0  0  0  0  0  0  0
   -0.9716    2.4667    2.3354 H   0  0  0  0  0  0  0  0  0  0  0  0
   -1.2432    1.5901   -0.0177 H   0  0  0  0  0  0  0  0  0  0  0  0
   -0.2019   -1.7679    0.9569 H   0  0  0  0  0  0  0  0  0  0  0  0
    2.5835   -2.5878   -1.2733 H   0  0  0  0  0  0  0  0  0  0  0  0
    1.2251   -2.2633   -2.3887 H   0  0  0  0  0  0  0  0  0  0  0  0
    1.1481   -4.1274   -0.9226 H   0  0  0  0  0  0  0  0  0  0  0  0
    3.8929   -0.4296    1.1263 H   0  0  0  0  0  0  0  0  0  0  0  0
    3.5578    1.9666    1.5684 H   0  0  0  0  0  0  0  0  0  0  0  0
    2.3003    1.0136    2.3999 H   0  0  0  0  0  0  0  0  0  0  0  0
    1.3550    2.7427    1.4393 H   0  0  0  0  0  0  0  0  0  0  0  0
    3.9101    1.3295   -1.0021 H   0  0  0  0  0  0  0  0  0  0  0  0
    5.2350   -0.4381   -0.9553 H   0  0  0  0  0  0  0  0  0  0  0  0
    2.2683   -0.1753   -2.6186 H   0  0  0  0  0  0  0  0  0  0  0  0
    1.2028    1.7101   -0.7961 H   0  0  0  0  0  0  0  0  0  0  0  0
   -2.6092   -2.0563    0.7796 H   0  0  0  0  0  0  0  0  0  0  0  0
   -1.0093   -2.9955   -0.9187 H   0  0  0  0  0  0  0  0  0  0  0  0
   -2.5428   -0.1223   -1.6055 H   0  0  0  0  0  0  0  0  0  0  0  0
   -4.0558   -1.8692   -1.4864 H   0  0  0  0  0  0  0  0  0  0  0  0
   -3.7335    0.2539    1.1939 H   0  0  0  0  0  0  0  0  0  0  0  0
   -4.6420    1.2302   -0.7279 H   0  0  0  0  0  0  0  0  0  0  0  0
  1  2  1  0
  2  3  1  0
  3  4  1  0
  4  5  1  0
  5  6  1  0
  7  6  1  1
  7  8  1  0
  8  9  1  0
  7 10  1  0
 10 11  1  0
 11 12  1  0
 12 13  1  0
 11 14  1  0
 14 15  1  0
 14 16  1  0
 16 17  1  0
  5 18  1  0
 18 19  1  0
 18 20  1  0
 20 21  1  0
 20 22  1  0
 22 23  1  0
 22  3  1  0
 16  7  1  0
  1 24  1  0
  2 25  1  0
  2 26  1  0
  3 27  1  6
  5 28  1  1
  8 29  1  0
  8 30  1  0
  9 31  1  0
 11 32  1  1
 12 33  1  0
 12 34  1  0
 13 35  1  0
 14 36  1  1
 15 37  1  0
 16 38  1  6
 17 39  1  0
 18 40  1  1
 19 41  1  0
 20 42  1  6
 21 43  1  0
 22 44  1  1
 23 45  1  0
M  END
$$$$
