OMPs000202
     RDKit          3D

 43 45  0  0  0  0  0  0  0  0999 V2000
    2.0072   -2.3553   -1.7563 C   0  0  0  0  0  0  0  0  0  0  0  0
    1.8241   -1.1286   -0.8539 C   0  0  0  0  0  0  0  0  0  0  0  0
    1.4106    0.0636   -1.7342 C   0  0  0  0  0  0  0  0  0  0  0  0
    0.4268   -1.4700    0.3118 S   0  0  0  0  0  0  0  0  0  0  0  0
    1.2776   -0.7728    1.7850 C   0  0  2  0  0  0  0  0  0  0  0  0
    0.9160    0.6767    2.2089 C   0  0  2  0  0  0  0  0  0  0  0  0
   -0.3598    1.2593    1.7168 N   0  0  0  0  0  0  0  0  0  0  0  0
   -1.5749    0.8701    2.2400 C   0  0  0  0  0  0  0  0  0  0  0  0
   -1.6510    0.0631    3.1677 O   0  0  0  0  0  0  0  0  0  0  0  0
   -2.8187    1.5789    1.6350 C   0  0  2  0  0  0  0  0  0  0  0  0
   -4.0572    0.9816    2.1735 N   0  0  0  0  0  0  0  0  0  0  0  0
   -2.8285    1.5762    0.1171 C   0  0  0  0  0  0  0  0  0  0  0  0
   -2.7534    0.3787   -0.6131 C   0  0  0  0  0  0  0  0  0  0  0  0
   -2.7327    0.3955   -2.0087 C   0  0  0  0  0  0  0  0  0  0  0  0
   -2.7950    1.6068   -2.6931 C   0  0  0  0  0  0  0  0  0  0  0  0
   -2.8850    2.8021   -1.9834 C   0  0  0  0  0  0  0  0  0  0  0  0
   -2.9049    2.7881   -0.5874 C   0  0  0  0  0  0  0  0  0  0  0  0
    2.1782    1.0599    1.4012 C   0  0  0  0  0  0  0  0  0  0  0  0
    2.6332    2.0663    0.9093 O   0  0  0  0  0  0  0  0  0  0  0  0
    2.5592   -0.2448    1.2832 N   0  0  0  0  0  0  0  0  0  0  0  0
    3.0500   -0.7793    0.0189 C   0  0  1  0  0  0  0  0  0  0  0  0
    3.9424   -1.9746    0.3445 C   0  0  0  0  0  0  0  0  0  0  0  0
    4.9233   -2.1522   -0.5669 O   0  0  0  0  0  0  0  0  0  0  0  0
    3.8385   -2.7460    1.2852 O   0  0  0  0  0  0  0  0  0  0  0  0
    1.1159   -2.5420   -2.3680 H   0  0  0  0  0  0  0  0  0  0  0  0
    2.2046   -3.2699   -1.1859 H   0  0  0  0  0  0  0  0  0  0  0  0
    2.8440   -2.2053   -2.4482 H   0  0  0  0  0  0  0  0  0  0  0  0
    0.5320   -0.1721   -2.3467 H   0  0  0  0  0  0  0  0  0  0  0  0
    2.2211    0.3294   -2.4231 H   0  0  0  0  0  0  0  0  0  0  0  0
    1.1724    0.9595   -1.1529 H   0  0  0  0  0  0  0  0  0  0  0  0
    1.4051   -1.4775    2.6121 H   0  0  0  0  0  0  0  0  0  0  0  0
    1.0473    0.8741    3.2805 H   0  0  0  0  0  0  0  0  0  0  0  0
   -0.3575    1.8432    0.8849 H   0  0  0  0  0  0  0  0  0  0  0  0
   -2.7744    2.6130    1.9999 H   0  0  0  0  0  0  0  0  0  0  0  0
   -3.9344    0.9004    3.1861 H   0  0  0  0  0  0  0  0  0  0  0  0
   -4.1004    0.0117    1.8598 H   0  0  0  0  0  0  0  0  0  0  0  0
   -2.7068   -0.5802   -0.1002 H   0  0  0  0  0  0  0  0  0  0  0  0
   -2.6718   -0.5393   -2.5603 H   0  0  0  0  0  0  0  0  0  0  0  0
   -2.7846    1.6186   -3.7798 H   0  0  0  0  0  0  0  0  0  0  0  0
   -2.9479    3.7468   -2.5177 H   0  0  0  0  0  0  0  0  0  0  0  0
   -2.9889    3.7325   -0.0533 H   0  0  0  0  0  0  0  0  0  0  0  0
    3.6780   -0.0142   -0.4548 H   0  0  0  0  0  0  0  0  0  0  0  0
    5.4205   -2.9303   -0.2334 H   0  0  0  0  0  0  0  0  0  0  0  0
  1  2  1  0
  2  3  1  0
  2  4  1  0
  4  5  1  0
  5  6  1  0
  6  7  1  0
  7  8  1  0
  8  9  2  0
  8 10  1  0
 10 11  1  0
 10 12  1  0
 12 13  2  0
 13 14  1  0
 14 15  2  0
 15 16  1  0
 16 17  2  0
  6 18  1  0
 18 19  2  0
 18 20  1  0
 20 21  1  0
 21 22  1  0
 22 23  1  0
 22 24  2  0
 21  2  1  0
 20  5  1  0
 17 12  1  0
  1 25  1  0
  1 26  1  0
  1 27  1  0
  3 28  1  0
  3 29  1  0
  3 30  1  0
  5 31  1  1
  6 32  1  1
  7 33  1  0
 10 34  1  1
 11 35  1  0
 11 36  1  0
 13 37  1  0
 14 38  1  0
 15 39  1  0
 16 40  1  0
 17 41  1  0
 21 42  1  6
 23 43  1  0
M  END
$$$$
