OMPs000055
     RDKit          3D

 24 24  0  0  0  0  0  0  0  0999 V2000
   -3.7890   -0.8608   -1.5595 N   0  0  0  0  0  0  0  0  0  0  0  0
   -3.1731   -0.1939   -0.5523 C   0  0  0  0  0  0  0  0  0  0  0  0
   -4.0001    0.7294   -0.0122 N   0  0  0  0  0  0  0  0  0  0  0  0
   -1.9704   -0.5150   -0.2317 N   0  0  0  0  0  0  0  0  0  0  0  0
   -1.2225    0.2064    1.0112 S   0  0  0  0  0  6  0  0  0  0  0  0
   -1.3877   -0.5891    2.2123 O   0  0  0  0  0  0  0  0  0  0  0  0
   -1.5548    1.6228    1.0287 O   0  0  0  0  0  0  0  0  0  0  0  0
    0.4978    0.0810    0.5580 C   0  0  0  0  0  0  0  0  0  0  0  0
    1.1916    1.2046    0.1063 C   0  0  0  0  0  0  0  0  0  0  0  0
    2.5440    1.0865   -0.2270 C   0  0  0  0  0  0  0  0  0  0  0  0
    3.1973   -0.1483   -0.1480 C   0  0  0  0  0  0  0  0  0  0  0  0
    4.5765   -0.2285   -0.3677 N   0  0  0  0  0  0  0  0  0  0  0  0
    2.5032   -1.2473    0.3690 C   0  0  0  0  0  0  0  0  0  0  0  0
    1.1510   -1.1446    0.7054 C   0  0  0  0  0  0  0  0  0  0  0  0
   -4.3581   -0.3081   -2.1842 H   0  0  0  0  0  0  0  0  0  0  0  0
   -3.1526   -1.4696   -2.0637 H   0  0  0  0  0  0  0  0  0  0  0  0
   -4.7612    1.0830   -0.5722 H   0  0  0  0  0  0  0  0  0  0  0  0
   -3.5571    1.4477    0.5617 H   0  0  0  0  0  0  0  0  0  0  0  0
    0.7007    2.1710    0.0250 H   0  0  0  0  0  0  0  0  0  0  0  0
    3.0875    1.9719   -0.5473 H   0  0  0  0  0  0  0  0  0  0  0  0
    4.9358    0.4707   -1.0097 H   0  0  0  0  0  0  0  0  0  0  0  0
    4.9071   -1.1626   -0.5883 H   0  0  0  0  0  0  0  0  0  0  0  0
    3.0131   -2.1958    0.5177 H   0  0  0  0  0  0  0  0  0  0  0  0
    0.6210   -2.0114    1.0942 H   0  0  0  0  0  0  0  0  0  0  0  0
  1  2  1  0
  2  3  1  0
  2  4  2  3
  4  5  1  0
  5  6  2  0
  5  7  2  0
  5  8  1  0
  8  9  2  0
  9 10  1  0
 10 11  2  0
 11 12  1  0
 11 13  1  0
 13 14  2  0
 14  8  1  0
  1 15  1  0
  1 16  1  0
  3 17  1  0
  3 18  1  0
  9 19  1  0
 10 20  1  0
 12 21  1  0
 12 22  1  0
 13 23  1  0
 14 24  1  0
M  END
$$$$
