OMPs000148
     RDKit          3D

 26 25  0  0  0  0  0  0  0  0999 V2000
    3.7701    1.1421    0.1272 C   0  0  0  0  0  0  0  0  0  0  0  0
    3.2608    0.0917    1.1019 C   0  0  0  0  0  0  0  0  0  0  0  0
    2.0557   -0.6935    0.5797 C   0  0  0  0  0  0  0  0  0  0  0  0
    0.8028    0.1667    0.4008 C   0  0  0  0  0  0  0  0  0  0  0  0
   -0.3978   -0.6843   -0.0198 C   0  0  0  0  0  0  0  0  0  0  0  0
   -1.6507    0.1732   -0.2026 C   0  0  0  0  0  0  0  0  0  0  0  0
   -2.8495   -0.6759   -0.6219 C   0  0  0  0  0  0  0  0  0  0  0  0
   -4.0948    0.1578   -0.8065 C   0  0  0  0  0  0  0  0  0  0  0  0
   -4.1732    1.3676   -0.6486 O   0  0  0  0  0  0  0  0  0  0  0  0
   -5.1278   -0.6477   -1.1787 O   0  0  0  0  0  0  0  0  0  0  0  0
   -6.3255    0.0880   -1.3659 F   0  0  0  0  0  0  0  0  0  0  0  0
    4.6866    1.5996    0.5137 H   0  0  0  0  0  0  0  0  0  0  0  0
    3.0384    1.9419   -0.0197 H   0  0  0  0  0  0  0  0  0  0  0  0
    3.9984    0.6973   -0.8464 H   0  0  0  0  0  0  0  0  0  0  0  0
    4.0733   -0.6157    1.3068 H   0  0  0  0  0  0  0  0  0  0  0  0
    3.0097    0.5701    2.0557 H   0  0  0  0  0  0  0  0  0  0  0  0
    2.3143   -1.1736   -0.3720 H   0  0  0  0  0  0  0  0  0  0  0  0
    1.8384   -1.4998    1.2912 H   0  0  0  0  0  0  0  0  0  0  0  0
    0.9806    0.9356   -0.3594 H   0  0  0  0  0  0  0  0  0  0  0  0
    0.5746    0.6840    1.3404 H   0  0  0  0  0  0  0  0  0  0  0  0
   -0.5872   -1.4533    0.7390 H   0  0  0  0  0  0  0  0  0  0  0  0
   -0.1684   -1.2045   -0.9577 H   0  0  0  0  0  0  0  0  0  0  0  0
   -1.4631    0.9456   -0.9589 H   0  0  0  0  0  0  0  0  0  0  0  0
   -1.8794    0.6979    0.7334 H   0  0  0  0  0  0  0  0  0  0  0  0
   -2.6320   -1.1798   -1.5703 H   0  0  0  0  0  0  0  0  0  0  0  0
   -3.0543   -1.4309    0.1454 H   0  0  0  0  0  0  0  0  0  0  0  0
  1  2  1  0
  2  3  1  0
  3  4  1  0
  4  5  1  0
  5  6  1  0
  6  7  1  0
  7  8  1  0
  8  9  2  0
  8 10  1  0
 10 11  1  0
  1 12  1  0
  1 13  1  0
  1 14  1  0
  2 15  1  0
  2 16  1  0
  3 17  1  0
  3 18  1  0
  4 19  1  0
  4 20  1  0
  5 21  1  0
  5 22  1  0
  6 23  1  0
  6 24  1  0
  7 25  1  0
  7 26  1  0
M  END
$$$$
