OMPs000004
     RDKit          3D

 33 34  0  0  0  0  0  0  0  0999 V2000
    0.0087   -1.9422   -1.4479 C   0  0  0  0  0  0  0  0  0  0  0  0
    0.0368   -1.1657   -0.1052 C   0  0  0  0  0  0  0  0  0  0  0  0
    0.0860   -2.2425    1.0106 C   0  0  0  0  0  0  0  0  0  0  0  0
   -1.2399   -0.3287    0.1554 C   0  0  0  0  0  0  0  0  0  0  0  0
   -2.3790   -0.3956   -0.6669 C   0  0  0  0  0  0  0  0  0  0  0  0
   -3.5170    0.3718   -0.3917 C   0  0  0  0  0  0  0  0  0  0  0  0
   -3.5288    1.2143    0.7125 C   0  0  0  0  0  0  0  0  0  0  0  0
   -4.6169    1.9777    1.0143 O   0  0  0  0  0  0  0  0  0  0  0  0
   -2.4240    1.3015    1.5451 C   0  0  0  0  0  0  0  0  0  0  0  0
   -1.2896    0.5348    1.2704 C   0  0  0  0  0  0  0  0  0  0  0  0
    1.2937   -0.2626   -0.1536 C   0  0  0  0  0  0  0  0  0  0  0  0
    2.4393   -0.5079    0.6233 C   0  0  0  0  0  0  0  0  0  0  0  0
    3.5568    0.3291    0.5431 C   0  0  0  0  0  0  0  0  0  0  0  0
    3.5458    1.4199   -0.3140 C   0  0  0  0  0  0  0  0  0  0  0  0
    4.6567    2.2086   -0.3564 O   0  0  0  0  0  0  0  0  0  0  0  0
    2.4339    1.6903   -1.0991 C   0  0  0  0  0  0  0  0  0  0  0  0
    1.3183    0.8522   -1.0196 C   0  0  0  0  0  0  0  0  0  0  0  0
   -0.8019   -2.6804   -1.4719 H   0  0  0  0  0  0  0  0  0  0  0  0
   -0.1245   -1.2772   -2.3095 H   0  0  0  0  0  0  0  0  0  0  0  0
    0.9459   -2.4906   -1.6066 H   0  0  0  0  0  0  0  0  0  0  0  0
    0.2101   -1.8025    2.0073 H   0  0  0  0  0  0  0  0  0  0  0  0
    0.9109   -2.9483    0.8564 H   0  0  0  0  0  0  0  0  0  0  0  0
   -0.8395   -2.8317    1.0317 H   0  0  0  0  0  0  0  0  0  0  0  0
   -2.4101   -1.0451   -1.5372 H   0  0  0  0  0  0  0  0  0  0  0  0
   -4.3777    0.2949   -1.0486 H   0  0  0  0  0  0  0  0  0  0  0  0
   -5.3065    1.8079    0.3523 H   0  0  0  0  0  0  0  0  0  0  0  0
   -2.4405    1.9633    2.4060 H   0  0  0  0  0  0  0  0  0  0  0  0
   -0.4324    0.6228    1.9360 H   0  0  0  0  0  0  0  0  0  0  0  0
    2.4936   -1.3507    1.3063 H   0  0  0  0  0  0  0  0  0  0  0  0
    4.4340    0.1271    1.1513 H   0  0  0  0  0  0  0  0  0  0  0  0
    4.4950    2.9331   -0.9824 H   0  0  0  0  0  0  0  0  0  0  0  0
    2.4106    2.5405   -1.7728 H   0  0  0  0  0  0  0  0  0  0  0  0
    0.4523    1.0819   -1.6385 H   0  0  0  0  0  0  0  0  0  0  0  0
  1  2  1  0
  2  3  1  0
  2  4  1  0
  4  5  2  0
  5  6  1  0
  6  7  2  0
  7  8  1  0
  7  9  1  0
  9 10  2  0
  2 11  1  0
 11 12  2  0
 12 13  1  0
 13 14  2  0
 14 15  1  0
 14 16  1  0
 16 17  2  0
 10  4  1  0
 17 11  1  0
  1 18  1  0
  1 19  1  0
  1 20  1  0
  3 21  1  0
  3 22  1  0
  3 23  1  0
  5 24  1  0
  6 25  1  0
  8 26  1  0
  9 27  1  0
 10 28  1  0
 12 29  1  0
 13 30  1  0
 15 31  1  0
 16 32  1  0
 17 33  1  0
M  END
$$$$
