OMPs000158
     RDKit          3D

 19 18  0  0  0  0  0  0  0  0999 V2000
    2.9452   -0.1658   -0.0581 C   0  0  0  0  0  0  0  0  0  0  0  0
    1.5966    0.0383   -0.6932 C   0  0  0  0  0  0  0  0  0  0  0  0
    1.4687    0.4485   -1.8416 O   0  0  0  0  0  0  0  0  0  0  0  0
    0.5362   -0.2545    0.1340 N   0  0  0  0  0  0  0  0  0  0  0  0
   -0.8347    0.0429   -0.3000 C   0  0  1  0  0  0  0  0  0  0  0  0
   -1.8676   -0.8608    0.3837 C   0  0  0  0  0  0  0  0  0  0  0  0
   -1.6170   -2.6317    0.0246 S   0  0  0  0  0  0  0  0  0  0  0  0
   -1.2155    1.4893    0.0309 C   0  0  0  0  0  0  0  0  0  0  0  0
   -0.3236    2.1389    0.8125 O   0  0  0  0  0  0  0  0  0  0  0  0
   -2.2557    2.0455   -0.2883 O   0  0  0  0  0  0  0  0  0  0  0  0
    2.8755   -0.7892    0.8379 H   0  0  0  0  0  0  0  0  0  0  0  0
    3.3640    0.8066    0.2137 H   0  0  0  0  0  0  0  0  0  0  0  0
    3.6052   -0.6665   -0.7718 H   0  0  0  0  0  0  0  0  0  0  0  0
    0.7160   -0.2171    1.1291 H   0  0  0  0  0  0  0  0  0  0  0  0
   -0.8897   -0.0596   -1.3904 H   0  0  0  0  0  0  0  0  0  0  0  0
   -1.8300   -0.7342    1.4718 H   0  0  0  0  0  0  0  0  0  0  0  0
   -2.8813   -0.5973    0.0623 H   0  0  0  0  0  0  0  0  0  0  0  0
   -2.6978   -3.0769    0.6822 H   0  0  0  0  0  0  0  0  0  0  0  0
   -0.6946    3.0437    0.8903 H   0  0  0  0  0  0  0  0  0  0  0  0
  1  2  1  0
  2  3  2  0
  2  4  1  0
  4  5  1  0
  5  6  1  0
  6  7  1  0
  5  8  1  0
  8  9  1  0
  8 10  2  0
  1 11  1  0
  1 12  1  0
  1 13  1  0
  4 14  1  0
  5 15  1  6
  6 16  1  0
  6 17  1  0
  7 18  1  0
  9 19  1  0
M  END
$$$$
