OMPs000060
     RDKit          3D

  5  4  0  0  0  0  0  0  0  0999 V2000
   -1.5086    0.2869   -1.2391 Br  0  0  0  0  0  0  0  0  0  0  0  0
    0.0000    0.0000   -0.0000 C   0  0  0  0  0  0  0  0  0  0  0  0
    0.5105    1.7188    0.8238 Br  0  0  0  0  0  0  0  0  0  0  0  0
   -0.5394   -1.2707    1.4099 Br  0  0  0  0  0  0  0  0  0  0  0  0
    1.5375   -0.7350   -0.9946 Br  0  0  0  0  0  0  0  0  0  0  0  0
  1  2  1  0
  2  3  1  0
  2  4  1  0
  2  5  1  0
M  END
$$$$
