OMPs000185
     RDKit          3D

 18 18  0  0  0  0  0  0  0  0999 V2000
   -2.2893   -0.6744    0.1686 C   0  0  0  0  0  0  0  0  0  0  0  0
   -0.8107   -0.4611    0.0018 C   0  0  0  0  0  0  0  0  0  0  0  0
   -0.0129   -1.5356   -0.4223 C   0  0  0  0  0  0  0  0  0  0  0  0
    1.3672   -1.3828   -0.5842 C   0  0  0  0  0  0  0  0  0  0  0  0
    1.9683   -0.1556   -0.3292 C   0  0  0  0  0  0  0  0  0  0  0  0
    3.3176   -0.0656   -0.4972 O   0  0  0  0  0  0  0  0  0  0  0  0
    1.2125    0.9348    0.0779 C   0  0  0  0  0  0  0  0  0  0  0  0
   -0.1742    0.7752    0.2309 C   0  0  0  0  0  0  0  0  0  0  0  0
   -0.9346    1.9511    0.6427 N   0  0  0  0  0  0  0  0  0  0  0  0
   -0.4770    2.6162    1.5828 O   0  0  0  0  0  0  0  0  0  0  0  0
   -1.9655    2.2210    0.0126 O   0  0  0  0  0  0  0  0  0  0  0  0
   -2.6452   -0.2320    1.1045 H   0  0  0  0  0  0  0  0  0  0  0  0
   -2.5322   -1.7418    0.2136 H   0  0  0  0  0  0  0  0  0  0  0  0
   -2.8335   -0.2415   -0.6763 H   0  0  0  0  0  0  0  0  0  0  0  0
   -0.4587   -2.5079   -0.6269 H   0  0  0  0  0  0  0  0  0  0  0  0
    1.9737   -2.2255   -0.9079 H   0  0  0  0  0  0  0  0  0  0  0  0
    3.6140    0.8295   -0.2618 H   0  0  0  0  0  0  0  0  0  0  0  0
    1.6805    1.8961    0.2704 H   0  0  0  0  0  0  0  0  0  0  0  0
  1  2  1  0
  2  3  2  0
  3  4  1  0
  4  5  2  0
  5  6  1  0
  5  7  1  0
  7  8  2  0
  8  9  1  0
  9 10  1  0
  9 11  2  0
  8  2  1  0
  1 12  1  0
  1 13  1  0
  1 14  1  0
  3 15  1  0
  4 16  1  0
  6 17  1  0
  7 18  1  0
M  CHG  2   9   1  10  -1
M  END
$$$$
