OMPs000074
     RDKit          3D

  5  4  0  0  0  0  0  0  0  0999 V2000
   -1.2306   -1.4165   -0.3792 Br  0  0  0  0  0  0  0  0  0  0  0  0
    0.0017    0.0035    0.1151 C   0  0  0  0  0  0  0  0  0  0  0  0
   -0.6105    1.7481   -0.4859 Br  0  0  0  0  0  0  0  0  0  0  0  0
    1.8213   -0.3723   -0.4571 Br  0  0  0  0  0  0  0  0  0  0  0  0
    0.0181    0.0372    1.2071 H   0  0  0  0  0  0  0  0  0  0  0  0
  1  2  1  0
  2  3  1  0
  2  4  1  0
  2  5  1  0
M  END
$$$$
