OMPs000203
     RDKit          3D

 55 57  0  0  0  0  0  0  0  0999 V2000
    7.9483    0.1862    0.3908 C   0  0  0  0  0  0  0  0  0  0  0  0
    6.9124    0.6629   -0.4575 O   0  0  0  0  0  0  0  0  0  0  0  0
    5.6593    0.1578   -0.2476 C   0  0  0  0  0  0  0  0  0  0  0  0
    5.3080   -0.7954    0.7061 C   0  0  0  0  0  0  0  0  0  0  0  0
    3.9794   -1.2235    0.8185 C   0  0  0  0  0  0  0  0  0  0  0  0
    2.9779   -0.7093   -0.0208 C   0  0  0  0  0  0  0  0  0  0  0  0
    3.3446    0.2495   -0.9761 C   0  0  0  0  0  0  0  0  0  0  0  0
    4.6714    0.6748   -1.0862 C   0  0  0  0  0  0  0  0  0  0  0  0
    1.5363   -1.1796    0.1471 C   0  0  2  0  0  0  0  0  0  0  0  0
    0.8862   -1.9288   -1.4049 S   0  0  0  0  0  0  0  0  0  0  0  0
   -0.3072   -0.7146   -1.9576 C   0  0  0  0  0  0  0  0  0  0  0  0
   -0.1338   -0.2638   -3.2781 C   0  0  0  0  0  0  0  0  0  0  0  0
   -1.0741    0.5672   -3.8836 C   0  0  0  0  0  0  0  0  0  0  0  0
   -2.2159    0.9362   -3.1855 C   0  0  0  0  0  0  0  0  0  0  0  0
   -2.4092    0.4857   -1.8778 C   0  0  0  0  0  0  0  0  0  0  0  0
   -1.4569   -0.3258   -1.2331 C   0  0  0  0  0  0  0  0  0  0  0  0
   -1.6974   -0.7299    0.1193 N   0  0  0  0  0  0  0  0  0  0  0  0
   -3.0583   -1.1302    0.5071 C   0  0  0  0  0  0  0  0  0  0  0  0
   -3.7555   -0.0839    1.4086 C   0  0  0  0  0  0  0  0  0  0  0  0
   -5.1350   -0.3767    1.8402 N   0  0  0  0  0  0  0  0  0  0  0  0
   -5.1954   -1.5203    2.7482 C   0  0  0  0  0  0  0  0  0  0  0  0
   -6.0647   -0.5361    0.7280 C   0  0  0  0  0  0  0  0  0  0  0  0
   -0.7132   -0.8058    1.1059 C   0  0  0  0  0  0  0  0  0  0  0  0
   -0.9025   -1.3927    2.1766 O   0  0  0  0  0  0  0  0  0  0  0  0
    0.6458   -0.1363    0.8401 C   0  0  2  0  0  0  0  0  0  0  0  0
    0.6256    1.1096    0.1296 O   0  0  0  0  0  0  0  0  0  0  0  0
   -0.0172    2.1282    0.7568 C   0  0  0  0  0  0  0  0  0  0  0  0
    0.0335    3.3648   -0.0867 C   0  0  0  0  0  0  0  0  0  0  0  0
   -0.5859    2.0472    1.8342 O   0  0  0  0  0  0  0  0  0  0  0  0
    8.8737    0.6996    0.1115 H   0  0  0  0  0  0  0  0  0  0  0  0
    8.1070   -0.8876    0.2518 H   0  0  0  0  0  0  0  0  0  0  0  0
    7.7403    0.4213    1.4398 H   0  0  0  0  0  0  0  0  0  0  0  0
    6.0408   -1.2289    1.3781 H   0  0  0  0  0  0  0  0  0  0  0  0
    3.7369   -1.9686    1.5745 H   0  0  0  0  0  0  0  0  0  0  0  0
    2.6037    0.6776   -1.6471 H   0  0  0  0  0  0  0  0  0  0  0  0
    4.9370    1.4186   -1.8338 H   0  0  0  0  0  0  0  0  0  0  0  0
    1.5684   -2.0521    0.8147 H   0  0  0  0  0  0  0  0  0  0  0  0
    0.7332   -0.5781   -3.8573 H   0  0  0  0  0  0  0  0  0  0  0  0
   -0.9249    0.9032   -4.9069 H   0  0  0  0  0  0  0  0  0  0  0  0
   -2.9619    1.5721   -3.6568 H   0  0  0  0  0  0  0  0  0  0  0  0
   -3.3085    0.8132   -1.3629 H   0  0  0  0  0  0  0  0  0  0  0  0
   -2.9808   -2.0842    1.0423 H   0  0  0  0  0  0  0  0  0  0  0  0
   -3.6485   -1.3371   -0.3917 H   0  0  0  0  0  0  0  0  0  0  0  0
   -3.1449    0.0936    2.3027 H   0  0  0  0  0  0  0  0  0  0  0  0
   -3.7625    0.8850    0.8933 H   0  0  0  0  0  0  0  0  0  0  0  0
   -4.9293   -2.4628    2.2568 H   0  0  0  0  0  0  0  0  0  0  0  0
   -6.2057   -1.6267    3.1586 H   0  0  0  0  0  0  0  0  0  0  0  0
   -4.5251   -1.3728    3.6033 H   0  0  0  0  0  0  0  0  0  0  0  0
   -6.0149    0.3258    0.0535 H   0  0  0  0  0  0  0  0  0  0  0  0
   -5.8753   -1.4438    0.1456 H   0  0  0  0  0  0  0  0  0  0  0  0
   -7.0945   -0.5840    1.0994 H   0  0  0  0  0  0  0  0  0  0  0  0
    1.0890    0.0753    1.8246 H   0  0  0  0  0  0  0  0  0  0  0  0
    1.0546    3.5357   -0.4394 H   0  0  0  0  0  0  0  0  0  0  0  0
   -0.6500    3.2618   -0.9326 H   0  0  0  0  0  0  0  0  0  0  0  0
   -0.2644    4.2264    0.5166 H   0  0  0  0  0  0  0  0  0  0  0  0
  1  2  1  0
  2  3  1  0
  3  4  2  0
  4  5  1  0
  5  6  2  0
  6  7  1  0
  7  8  2  0
  6  9  1  0
  9 10  1  0
 10 11  1  0
 11 12  2  0
 12 13  1  0
 13 14  2  0
 14 15  1  0
 15 16  2  0
 16 17  1  0
 17 18  1  0
 18 19  1  0
 19 20  1  0
 20 21  1  0
 20 22  1  0
 17 23  1  0
 23 24  2  0
 23 25  1  0
 25 26  1  0
 26 27  1  0
 27 28  1  0
 27 29  2  0
  8  3  1  0
 25  9  1  0
 16 11  1  0
  1 30  1  0
  1 31  1  0
  1 32  1  0
  4 33  1  0
  5 34  1  0
  7 35  1  0
  8 36  1  0
  9 37  1  1
 12 38  1  0
 13 39  1  0
 14 40  1  0
 15 41  1  0
 18 42  1  0
 18 43  1  0
 19 44  1  0
 19 45  1  0
 21 46  1  0
 21 47  1  0
 21 48  1  0
 22 49  1  0
 22 50  1  0
 22 51  1  0
 25 52  1  1
 28 53  1  0
 28 54  1  0
 28 55  1  0
M  END
$$$$
