OMPs000064
     RDKit          3D

 34 35  0  0  0  0  0  0  0  0999 V2000
   -4.0858    0.0814    0.2967 C   0  0  0  0  0  0  0  0  0  0  0  0
   -2.8818   -0.7020    0.0506 N   0  0  0  0  0  0  0  0  0  0  0  0
   -3.0911   -2.1500    0.0034 C   0  0  0  0  0  0  0  0  0  0  0  0
   -1.6008   -0.1490    0.0421 C   0  0  0  0  0  0  0  0  0  0  0  0
   -1.1350    1.0977   -0.1841 C   0  0  0  0  0  0  0  0  0  0  0  0
   -1.9338    2.2956   -0.5906 C   0  0  0  0  0  0  0  0  0  0  0  0
    0.2558    1.2321   -0.0459 N   0  0  0  0  0  0  0  0  0  0  0  0
    0.7426    2.2384    0.9160 C   0  0  0  0  0  0  0  0  0  0  0  0
    0.7437   -0.0726    0.2142 N   0  0  0  0  0  0  0  0  0  0  0  0
    2.0878   -0.4326   -0.0699 C   0  0  0  0  0  0  0  0  0  0  0  0
    2.5996   -1.6784    0.3177 C   0  0  0  0  0  0  0  0  0  0  0  0
    3.9250   -2.0324    0.0421 C   0  0  0  0  0  0  0  0  0  0  0  0
    4.7602   -1.1467   -0.6319 C   0  0  0  0  0  0  0  0  0  0  0  0
    4.2697    0.0916   -1.0335 C   0  0  0  0  0  0  0  0  0  0  0  0
    2.9448    0.4436   -0.7552 C   0  0  0  0  0  0  0  0  0  0  0  0
   -0.3372   -0.9567    0.3250 C   0  0  0  0  0  0  0  0  0  0  0  0
   -0.3252   -2.1581    0.5585 O   0  0  0  0  0  0  0  0  0  0  0  0
   -4.8455   -0.5089    0.8219 H   0  0  0  0  0  0  0  0  0  0  0  0
   -3.8798    0.9520    0.9281 H   0  0  0  0  0  0  0  0  0  0  0  0
   -4.5168    0.4185   -0.6511 H   0  0  0  0  0  0  0  0  0  0  0  0
   -2.9025   -2.5974    0.9845 H   0  0  0  0  0  0  0  0  0  0  0  0
   -4.1209   -2.3909   -0.2848 H   0  0  0  0  0  0  0  0  0  0  0  0
   -2.4447   -2.6186   -0.7463 H   0  0  0  0  0  0  0  0  0  0  0  0
   -2.8532    2.0223   -1.1142 H   0  0  0  0  0  0  0  0  0  0  0  0
   -1.3599    2.9209   -1.2836 H   0  0  0  0  0  0  0  0  0  0  0  0
   -2.1908    2.9012    0.2838 H   0  0  0  0  0  0  0  0  0  0  0  0
    0.3354    2.0507    1.9164 H   0  0  0  0  0  0  0  0  0  0  0  0
    0.4399    3.2423    0.5998 H   0  0  0  0  0  0  0  0  0  0  0  0
    1.8337    2.2418    0.9901 H   0  0  0  0  0  0  0  0  0  0  0  0
    1.9849   -2.3932    0.8585 H   0  0  0  0  0  0  0  0  0  0  0  0
    4.2993   -3.0035    0.3564 H   0  0  0  0  0  0  0  0  0  0  0  0
    5.7881   -1.4245   -0.8492 H   0  0  0  0  0  0  0  0  0  0  0  0
    4.9118    0.7826   -1.5733 H   0  0  0  0  0  0  0  0  0  0  0  0
    2.5826    1.4027   -1.1146 H   0  0  0  0  0  0  0  0  0  0  0  0
  1  2  1  0
  2  3  1  0
  2  4  1  0
  4  5  2  0
  5  6  1  0
  5  7  1  0
  7  8  1  0
  7  9  1  0
  9 10  1  0
 10 11  2  0
 11 12  1  0
 12 13  2  0
 13 14  1  0
 14 15  2  0
  9 16  1  0
 16 17  2  0
 16  4  1  0
 15 10  1  0
  1 18  1  0
  1 19  1  0
  1 20  1  0
  3 21  1  0
  3 22  1  0
  3 23  1  0
  6 24  1  0
  6 25  1  0
  6 26  1  0
  8 27  1  0
  8 28  1  0
  8 29  1  0
 11 30  1  0
 12 31  1  0
 13 32  1  0
 14 33  1  0
 15 34  1  0
M  END
$$$$
