OMPs000100
     RDKit          3D

 20 19  0  0  0  0  0  0  0  0999 V2000
   -2.4971    0.6359    0.8375 C   0  0  0  0  0  0  0  0  0  0  0  0
   -2.1187   -0.6233    0.0732 C   0  0  0  0  0  0  0  0  0  0  0  0
   -0.8683   -0.4599   -0.7934 C   0  0  0  0  0  0  0  0  0  0  0  0
    0.4057   -0.2226    0.0190 C   0  0  0  0  0  0  0  0  0  0  0  0
    1.6341   -0.1724   -0.8828 C   0  0  0  0  0  0  0  0  0  0  0  0
    2.8828    0.0376   -0.0686 C   0  0  0  0  0  0  0  0  0  0  0  0
    3.6116   -0.8653    0.3195 O   0  0  0  0  0  0  0  0  0  0  0  0
    3.0663    1.3596    0.1894 O   0  0  0  0  0  0  0  0  0  0  0  0
    4.2292    1.5855    0.9685 F   0  0  0  0  0  0  0  0  0  0  0  0
   -3.4484    0.4871    1.3584 H   0  0  0  0  0  0  0  0  0  0  0  0
   -2.6119    1.4877    0.1597 H   0  0  0  0  0  0  0  0  0  0  0  0
   -1.7448    0.8903    1.5898 H   0  0  0  0  0  0  0  0  0  0  0  0
   -1.9784   -1.4502    0.7790 H   0  0  0  0  0  0  0  0  0  0  0  0
   -2.9573   -0.9007   -0.5768 H   0  0  0  0  0  0  0  0  0  0  0  0
   -0.7465   -1.3704   -1.3932 H   0  0  0  0  0  0  0  0  0  0  0  0
   -1.0159    0.3661   -1.4999 H   0  0  0  0  0  0  0  0  0  0  0  0
    0.3289    0.7172    0.5777 H   0  0  0  0  0  0  0  0  0  0  0  0
    0.5271   -1.0209    0.7617 H   0  0  0  0  0  0  0  0  0  0  0  0
    1.5527    0.6274   -1.6279 H   0  0  0  0  0  0  0  0  0  0  0  0
    1.7489   -1.1085   -1.4416 H   0  0  0  0  0  0  0  0  0  0  0  0
  1  2  1  0
  2  3  1  0
  3  4  1  0
  4  5  1  0
  5  6  1  0
  6  7  2  0
  6  8  1  0
  8  9  1  0
  1 10  1  0
  1 11  1  0
  1 12  1  0
  2 13  1  0
  2 14  1  0
  3 15  1  0
  3 16  1  0
  4 17  1  0
  4 18  1  0
  5 19  1  0
  5 20  1  0
M  END
$$$$
