OMPs000097
     RDKit          3D

 14 13  0  0  0  0  0  0  0  0999 V2000
   -1.7366    0.5093    0.3045 C   0  0  0  0  0  0  0  0  0  0  0  0
   -0.8571   -0.6897   -0.0221 C   0  0  0  0  0  0  0  0  0  0  0  0
    0.2650   -0.3573   -0.8997 N   0  0  0  0  0  0  0  0  0  0  0  0
    1.3040    0.4485   -0.2586 C   0  0  0  0  0  0  0  0  0  0  0  0
    2.0556   -0.2384    0.8342 N   0  0  0  0  0  0  0  0  0  0  0  0
    3.2494   -0.4018    0.5567 O   0  0  0  0  0  0  0  0  0  0  0  0
   -1.2170    1.2374    0.9342 H   0  0  0  0  0  0  0  0  0  0  0  0
   -2.0700    1.0154   -0.6077 H   0  0  0  0  0  0  0  0  0  0  0  0
   -2.6281    0.1804    0.8487 H   0  0  0  0  0  0  0  0  0  0  0  0
   -0.5199   -1.1774    0.8993 H   0  0  0  0  0  0  0  0  0  0  0  0
   -1.4781   -1.4248   -0.5477 H   0  0  0  0  0  0  0  0  0  0  0  0
    0.7052   -1.2234   -1.2109 H   0  0  0  0  0  0  0  0  0  0  0  0
    2.0251    0.7491   -1.0279 H   0  0  0  0  0  0  0  0  0  0  0  0
    0.9024    1.3727    0.1672 H   0  0  0  0  0  0  0  0  0  0  0  0
  1  2  1  0
  2  3  1  0
  3  4  1  0
  4  5  1  0
  5  6  2  0
  1  7  1  0
  1  8  1  0
  1  9  1  0
  2 10  1  0
  2 11  1  0
  3 12  1  0
  4 13  1  0
  4 14  1  0
M  END
$$$$
