OMPs000039
     RDKit          3D

 13 12  0  0  0  0  0  0  0  0999 V2000
   -1.9034    0.4611    0.3097 C   0  0  0  0  0  0  0  0  0  0  0  0
   -0.4979    0.4435    0.5259 O   0  0  0  0  0  0  0  0  0  0  0  0
    0.1490   -0.5187   -0.3172 C   0  0  0  0  0  0  0  0  0  0  0  0
    1.6453   -0.4671   -0.0284 C   0  0  0  0  0  0  0  0  0  0  0  0
    2.1453    0.8380   -0.3160 O   0  0  0  0  0  0  0  0  0  0  0  0
   -2.3383   -0.5160    0.5409 H   0  0  0  0  0  0  0  0  0  0  0  0
   -2.3447    1.2068    0.9763 H   0  0  0  0  0  0  0  0  0  0  0  0
   -2.1282    0.7395   -0.7243 H   0  0  0  0  0  0  0  0  0  0  0  0
   -0.0401   -0.2546   -1.3637 H   0  0  0  0  0  0  0  0  0  0  0  0
   -0.2427   -1.5198   -0.1085 H   0  0  0  0  0  0  0  0  0  0  0  0
    1.8466   -0.6726    1.0276 H   0  0  0  0  0  0  0  0  0  0  0  0
    2.1885   -1.1896   -0.6436 H   0  0  0  0  0  0  0  0  0  0  0  0
    1.5206    1.4497    0.1213 H   0  0  0  0  0  0  0  0  0  0  0  0
  1  2  1  0
  2  3  1  0
  3  4  1  0
  4  5  1  0
  1  6  1  0
  1  7  1  0
  1  8  1  0
  3  9  1  0
  3 10  1  0
  4 11  1  0
  4 12  1  0
  5 13  1  0
M  END
$$$$
