OMPs000015
     RDKit          3D

 16 16  0  0  0  0  0  0  0  0999 V2000
   -3.0449    0.5217   -0.5695 O   0  0  0  0  0  0  0  0  0  0  0  0
   -2.3169   -0.4229    0.0516 C   0  0  0  0  0  0  0  0  0  0  0  0
   -2.8458   -1.3858    0.5757 O   0  0  0  0  0  0  0  0  0  0  0  0
   -0.8603   -0.1474    0.0135 C   0  0  0  0  0  0  0  0  0  0  0  0
    0.0047   -1.0633    0.6293 C   0  0  0  0  0  0  0  0  0  0  0  0
    1.3850   -0.8458    0.6189 C   0  0  0  0  0  0  0  0  0  0  0  0
    1.8923    0.2882   -0.0083 C   0  0  0  0  0  0  0  0  0  0  0  0
    3.2311    0.5410   -0.0431 O   0  0  0  0  0  0  0  0  0  0  0  0
    1.0457    1.2048   -0.6230 C   0  0  0  0  0  0  0  0  0  0  0  0
   -0.3343    0.9893   -0.6137 C   0  0  0  0  0  0  0  0  0  0  0  0
   -3.9691    0.2124   -0.4658 H   0  0  0  0  0  0  0  0  0  0  0  0
   -0.3958   -1.9492    1.1189 H   0  0  0  0  0  0  0  0  0  0  0  0
    2.0397   -1.5653    1.1006 H   0  0  0  0  0  0  0  0  0  0  0  0
    3.6970   -0.1745    0.4201 H   0  0  0  0  0  0  0  0  0  0  0  0
    1.4585    2.0851   -1.1082 H   0  0  0  0  0  0  0  0  0  0  0  0
   -0.9871    1.7118   -1.0970 H   0  0  0  0  0  0  0  0  0  0  0  0
  1  2  1  0
  2  3  2  0
  2  4  1  0
  4  5  2  0
  5  6  1  0
  6  7  2  0
  7  8  1  0
  7  9  1  0
  9 10  2  0
 10  4  1  0
  1 11  1  0
  5 12  1  0
  6 13  1  0
  8 14  1  0
  9 15  1  0
 10 16  1  0
M  END
$$$$
