OMPs000187
     RDKit          3D

 16 16  0  0  0  0  0  0  0  0999 V2000
   -3.1748   -0.7249   -0.9769 O   0  0  0  0  0  0  0  0  0  0  0  0
   -2.4335   -0.9518   -0.0135 N   0  0  0  0  0  0  0  0  0  0  0  0
   -2.6328   -1.7848    0.8797 O   0  0  0  0  0  0  0  0  0  0  0  0
   -1.1839   -0.2310    0.0415 C   0  0  0  0  0  0  0  0  0  0  0  0
   -0.0048   -0.9626   -0.1646 C   0  0  0  0  0  0  0  0  0  0  0  0
    1.2137   -0.2853   -0.1227 C   0  0  0  0  0  0  0  0  0  0  0  0
    2.4704   -1.0314   -0.3375 C   0  0  0  0  0  0  0  0  0  0  0  0
    3.5599   -0.4744   -0.3136 O   0  0  0  0  0  0  0  0  0  0  0  0
    1.2485    1.0933    0.1220 C   0  0  0  0  0  0  0  0  0  0  0  0
    0.0596    1.8023    0.3323 C   0  0  0  0  0  0  0  0  0  0  0  0
   -1.1714    1.1415    0.2955 C   0  0  0  0  0  0  0  0  0  0  0  0
   -2.5942    2.0657    0.6019 Cl  0  0  0  0  0  0  0  0  0  0  0  0
   -0.0460   -2.0332   -0.3524 H   0  0  0  0  0  0  0  0  0  0  0  0
    2.3804   -2.1154   -0.5211 H   0  0  0  0  0  0  0  0  0  0  0  0
    2.2023    1.6199    0.1544 H   0  0  0  0  0  0  0  0  0  0  0  0
    0.1065    2.8721    0.5293 H   0  0  0  0  0  0  0  0  0  0  0  0
  1  2  1  0
  2  3  2  0
  2  4  1  0
  4  5  2  0
  5  6  1  0
  6  7  1  0
  7  8  2  0
  6  9  2  0
  9 10  1  0
 10 11  2  0
 11 12  1  0
 11  4  1  0
  5 13  1  0
  7 14  1  0
  9 15  1  0
 10 16  1  0
M  CHG  2   1  -1   2   1
M  END
$$$$
