OMPs000063
     RDKit          3D

 29 29  0  0  0  0  0  0  0  0999 V2000
   -1.9551    4.0744    0.3048 Cl  0  0  0  0  0  0  0  0  0  0  0  0
   -0.9418    2.6193    0.0887 C   0  0  0  0  0  0  0  0  0  0  0  0
   -1.7064    1.3681    0.5346 C   0  0  0  0  0  0  0  0  0  0  0  0
   -1.0911    0.0757    0.1386 N   0  0  0  0  0  0  0  0  0  0  0  0
   -2.0813   -1.0029    0.3921 C   0  0  0  0  0  0  0  0  0  0  0  0
   -3.1037   -1.1415   -0.7398 C   0  0  0  0  0  0  0  0  0  0  0  0
   -4.1888   -2.5213   -0.4343 Cl  0  0  0  0  0  0  0  0  0  0  0  0
    0.4154   -0.2336    0.7461 P   0  0  0  0  0  5  0  0  0  0  0  0
    0.4902   -0.3429    2.2358 O   0  0  0  0  0  0  0  0  0  0  0  0
    0.9590   -1.5305   -0.0930 N   0  0  0  0  0  0  0  0  0  0  0  0
    2.3418   -1.5025   -0.5553 C   0  0  0  0  0  0  0  0  0  0  0  0
    3.2191   -0.6898    0.3901 C   0  0  0  0  0  0  0  0  0  0  0  0
    2.7737    0.7719    0.4465 C   0  0  0  0  0  0  0  0  0  0  0  0
    1.3840    0.9330    0.1986 O   0  0  0  0  0  0  0  0  0  0  0  0
   -0.6708    2.5663   -0.9697 H   0  0  0  0  0  0  0  0  0  0  0  0
   -0.0447    2.7816    0.6891 H   0  0  0  0  0  0  0  0  0  0  0  0
   -1.8311    1.3960    1.6250 H   0  0  0  0  0  0  0  0  0  0  0  0
   -2.7102    1.4322    0.0995 H   0  0  0  0  0  0  0  0  0  0  0  0
   -1.5605   -1.9643    0.4769 H   0  0  0  0  0  0  0  0  0  0  0  0
   -2.5784   -0.8546    1.3596 H   0  0  0  0  0  0  0  0  0  0  0  0
   -2.6046   -1.3233   -1.6967 H   0  0  0  0  0  0  0  0  0  0  0  0
   -3.7340   -0.2546   -0.8401 H   0  0  0  0  0  0  0  0  0  0  0  0
    0.3604   -1.7560   -0.8774 H   0  0  0  0  0  0  0  0  0  0  0  0
    2.7159   -2.5286   -0.6272 H   0  0  0  0  0  0  0  0  0  0  0  0
    2.3843   -1.0649   -1.5595 H   0  0  0  0  0  0  0  0  0  0  0  0
    3.1645   -1.1242    1.3968 H   0  0  0  0  0  0  0  0  0  0  0  0
    4.2716   -0.7446    0.0906 H   0  0  0  0  0  0  0  0  0  0  0  0
    3.0213    1.2174    1.4153 H   0  0  0  0  0  0  0  0  0  0  0  0
    3.3016    1.3443   -0.3233 H   0  0  0  0  0  0  0  0  0  0  0  0
  1  2  1  0
  2  3  1  0
  3  4  1  0
  4  5  1  0
  5  6  1  0
  6  7  1  0
  4  8  1  0
  8  9  2  0
  8 10  1  0
 10 11  1  0
 11 12  1  0
 12 13  1  0
 13 14  1  0
 14  8  1  0
  2 15  1  0
  2 16  1  0
  3 17  1  0
  3 18  1  0
  5 19  1  0
  5 20  1  0
  6 21  1  0
  6 22  1  0
 10 23  1  0
 11 24  1  0
 11 25  1  0
 12 26  1  0
 12 27  1  0
 13 28  1  0
 13 29  1  0
M  END
$$$$
